REMARK  Name = 3MTF_A3F.pdb
REMARK  5 active torsions:
REMARK  status: ('A' for Active; 'I' for Inactive)
REMARK    1  A    between atoms: _14  and  _15
REMARK    2  A    between atoms: _16  and  _19
REMARK    3  A    between atoms: _17  and  _24
REMARK    4  A    between atoms: _18  and  _25
REMARK    5  A    between atoms: _20  and  _26
REMARK                            x       y       z     vdW  Elec       q    Type
REMARK                         _______ _______ _______ _____ _____    ______ ____
ROOT
ATOM      1  C   UNL     1     -16.638 -13.943  38.266  0.00  0.00    +0.035 A 
ATOM      2  C   UNL     1     -15.299 -14.129  37.993  0.00  0.00    +0.170 A 
ATOM      3  N   UNL     1     -14.458 -13.085  37.967  0.00  0.00    -0.226 NA
ATOM      4  C   UNL     1     -14.820 -11.852  38.200  0.00  0.00    +0.100 A 
ATOM      5  C   UNL     1     -16.132 -11.590  38.569  0.00  0.00    +0.019 A 
ATOM      6  N   UNL     1     -14.883 -15.340  37.641  0.00  0.00    -0.107 NA
ATOM      7  C   UNL     1     -17.052 -12.642  38.555  0.00  0.00    +0.004 A 
ENDROOT
BRANCH   5   8
ATOM      8  C   UNL     1     -16.533 -10.258  38.794  0.00  0.00    +0.005 A 
ATOM      9  C   UNL     1     -17.730  -9.837  38.243  0.00  0.00    +0.042 A 
ATOM     10  C   UNL     1     -18.153  -8.525  38.375  0.00  0.00    +0.196 A 
ATOM     11  O   UNL     1     -19.329  -8.169  37.803  0.00  0.00    -0.287 OA
ATOM     12  C   UNL     1     -17.377  -7.581  39.037  0.00  0.00    +0.042 A 
ATOM     13  C   UNL     1     -16.152  -7.994  39.556  0.00  0.00    +0.003 A 
ATOM     14  C   UNL     1     -15.716  -9.320  39.419  0.00  0.00    +0.000 A 
ENDBRANCH   5   8
BRANCH   1  19
ATOM     15  C   UNL     1     -18.262 -17.196  39.158  0.00  0.00    +0.175 A 
ATOM     16  C   UNL     1     -19.454 -17.072  38.459  0.00  0.00    +0.206 A 
ATOM     17  C   UNL     1     -19.702 -15.955  37.664  0.00  0.00    +0.175 A 
ATOM     18  C   UNL     1     -18.773 -14.925  37.598  0.00  0.00    +0.040 A 
ATOM     19  C   UNL     1     -17.564 -15.019  38.285  0.00  0.00    +0.009 A 
ATOM     20  C   UNL     1     -17.333 -16.154  39.068  0.00  0.00    +0.040 A 
BRANCH  15  22
ATOM     21  C   UNL     1     -16.959 -18.375  40.913  0.00  0.00    +0.253 C 
ATOM     22  O   UNL     1     -18.039 -18.348  39.914  0.00  0.00    -0.468 OA
ENDBRANCH  15  22
BRANCH  16  23
ATOM     23  O   UNL     1     -20.408 -18.041  38.521  0.00  0.00    -0.465 OA
ATOM     24  C   UNL     1     -20.230 -19.007  37.500  0.00  0.00    +0.253 C 
ENDBRANCH  16  23
BRANCH  17  25
ATOM     25  O   UNL     1     -20.878 -15.937  36.984  0.00  0.00    -0.468 OA
ATOM     26  C   UNL     1     -21.174 -14.730  36.267  0.00  0.00    +0.253 C 
ENDBRANCH  17  25
ENDBRANCH   1  19
TORSDOF 5
