REMARK  Name = 3OOM_507.pdb
REMARK  4 active torsions:
REMARK  status: ('A' for Active; 'I' for Inactive)
REMARK    1  A    between atoms: _1  and  _18
REMARK    2  A    between atoms: _16  and  _24
REMARK    3  A    between atoms: _18  and  _19
REMARK    4  A    between atoms: _20  and  _22
REMARK                            x       y       z     vdW  Elec       q    Type
REMARK                         _______ _______ _______ _____ _____    ______ ____
ROOT
ATOM      1  C   UNL     1       1.248  -1.613  -0.016  0.00  0.00    +0.093 A 
ATOM      2  N   UNL     1      -0.093  -1.894   0.008  0.00  0.00    -0.211 N 
ATOM      3  C   UNL     1      -0.221  -3.256  -0.064  0.00  0.00    +0.155 A 
ATOM      4  N   UNL     1       0.994  -3.789  -0.129  0.00  0.00    -0.234 NA
ATOM      5  C   UNL     1      -1.508  -3.827  -0.058  0.00  0.00    +0.051 A 
ATOM      6  C   UNL     1      -2.596  -3.014   0.018  0.00  0.00    +0.049 A 
ATOM      7  C   UNL     1      -2.430  -1.618   0.091  0.00  0.00    +0.140 A 
ATOM      8  N   UNL     1      -3.550  -0.795   0.169  0.00  0.00    -0.325 N 
ATOM      9  H   UNL     1      -4.438  -1.184   0.172  0.00  0.00    +0.148 HD
ATOM     10  N   UNL     1      -1.231  -1.085   0.086  0.00  0.00    -0.150 NA
ATOM     11  C   UNL     1       1.905  -2.822  -0.102  0.00  0.00    +0.141 A 
ENDROOT
BRANCH   1  14
ATOM     12  C   UNL     1       3.835   1.124   0.062  0.00  0.00    +0.018 A 
ATOM     13  C   UNL     1       3.256  -0.146   0.007  0.00  0.00    +0.021 A 
ATOM     14  C   UNL     1       1.869  -0.273   0.039  0.00  0.00    +0.003 A 
ATOM     15  C   UNL     1       1.067   0.868   0.125  0.00  0.00    +0.010 A 
ATOM     16  C   UNL     1       1.645   2.121   0.178  0.00  0.00    +0.001 A 
ATOM     17  C   UNL     1       3.018   2.257   0.147  0.00  0.00    +0.011 A 
BRANCH  12  19
ATOM     18  C   UNL     1       5.921   2.641   0.086  0.00  0.00    +0.091 C 
ATOM     19  C   UNL     1       5.299   1.270   0.028  0.00  0.00    +0.160 C 
ATOM     20  O   UNL     1       6.005   0.286  -0.047  0.00  0.00    -0.292 OA
ENDBRANCH  12  19
ENDBRANCH   1  14
BRANCH   8  21
ATOM     21  C   UNL     1      -3.386   0.659   0.245  0.00  0.00    +0.076 C 
ATOM     22  C   UNL     1      -3.256   1.235  -1.168  0.00  0.00    +0.050 C 
ATOM     23  C   UNL     1      -3.165   2.760  -1.083  0.00  0.00    +0.161 C 
ATOM     24  O   UNL     1      -4.320   3.269  -0.412  0.00  0.00    -0.380 OA
ATOM     25  C   UNL     1      -4.467   2.801   0.930  0.00  0.00    +0.161 C 
ATOM     26  C   UNL     1      -4.611   1.277   0.926  0.00  0.00    +0.050 C 
ENDBRANCH   8  21
TORSDOF 3
