REMARK  Name = 3Q4U_LDN.pdb
REMARK  3 active torsions:
REMARK  status: ('A' for Active; 'I' for Inactive)
REMARK    1  A    between atoms: _18  and  _19
REMARK    2  A    between atoms: _20  and  _30
REMARK    3  A    between atoms: _21  and  _22
REMARK                            x       y       z     vdW  Elec       q    Type
REMARK                         _______ _______ _______ _____ _____    ______ ____
ROOT
ATOM      1  C   UNL     1      22.909 -19.273   5.058  0.00  0.00    +0.057 A 
ATOM      2  C   UNL     1      22.305 -20.451   5.459  0.00  0.00    +0.165 A 
ATOM      3  N   UNL     1      21.926 -21.129   4.263  0.00  0.00    -0.211 N 
ATOM      4  N   UNL     1      22.248 -20.429   3.291  0.00  0.00    -0.162 NA
ATOM      5  C   UNL     1      21.302 -22.351   4.326  0.00  0.00    +0.104 A 
ATOM      6  C   UNL     1      21.021 -22.902   5.564  0.00  0.00    +0.038 A 
ATOM      7  C   UNL     1      21.436 -22.228   6.718  0.00  0.00    +0.102 A 
ATOM      8  N   UNL     1      22.027 -20.994   6.669  0.00  0.00    -0.225 NA
ATOM      9  C   UNL     1      22.845 -19.298   3.739  0.00  0.00    +0.124 A 
ENDROOT
BRANCH   1  14
ATOM     10  C   UNL     1      26.217 -18.757   9.075  0.00  0.00    +0.002 A 
ATOM     11  C   UNL     1      25.775 -17.493   8.728  0.00  0.00    +0.019 A 
ATOM     12  C   UNL     1      24.879 -17.290   7.682  0.00  0.00    +0.081 A 
ATOM     13  C   UNL     1      24.401 -18.405   6.955  0.00  0.00    +0.018 A 
ATOM     14  C   UNL     1      23.470 -18.217   5.891  0.00  0.00    +0.008 A 
ATOM     15  C   UNL     1      23.156 -16.904   5.586  0.00  0.00    +0.021 A 
ATOM     16  C   UNL     1      23.650 -15.828   6.350  0.00  0.00    +0.099 A 
ATOM     17  C   UNL     1      24.838 -19.665   7.341  0.00  0.00    +0.001 A 
ATOM     18  N   UNL     1      24.510 -16.044   7.350  0.00  0.00    -0.244 NA
ATOM     19  C   UNL     1      25.750 -19.865   8.377  0.00  0.00    +0.000 A 
ENDBRANCH   1  14
BRANCH   6  20
ATOM     20  C   UNL     1      20.434 -24.183   5.596  0.00  0.00    +0.003 A 
ATOM     21  C   UNL     1      19.736 -24.705   4.496  0.00  0.00    +0.001 A 
ATOM     22  C   UNL     1      19.232 -26.016   4.571  0.00  0.00    +0.015 A 
ATOM     23  C   UNL     1      19.394 -26.793   5.699  0.00  0.00    +0.048 A 
ATOM     24  C   UNL     1      20.086 -26.274   6.777  0.00  0.00    +0.015 A 
ATOM     25  C   UNL     1      20.628 -24.992   6.703  0.00  0.00    +0.001 A 
BRANCH  23  26
ATOM     26  N   UNL     1      18.925 -28.142   5.809  0.00  0.00    -0.305 N 
ATOM     27  C   UNL     1      18.944 -28.837   7.104  0.00  0.00    +0.110 C 
ATOM     28  C   UNL     1      18.240 -30.222   7.093  0.00  0.00    +0.110 C 
ATOM     29  N   UNL     1      18.588 -31.049   5.912  0.00  0.00    -0.214 NA
ATOM     30  C   UNL     1      19.370 -30.305   4.899  0.00  0.00    +0.110 C 
ATOM     31  C   UNL     1      18.723 -28.959   4.608  0.00  0.00    +0.110 C 
ENDBRANCH  23  26
ENDBRANCH   6  20
TORSDOF 3
