REMARK  Name = 4BGG_844.pdb
REMARK  6 active torsions:
REMARK  status: ('A' for Active; 'I' for Inactive)
REMARK    1  A    between atoms: _2  and  _3
REMARK    2  A    between atoms: _4  and  _5
REMARK    3  A    between atoms: _7  and  _29
REMARK    4  A    between atoms: _9  and  _11
REMARK    5  A    between atoms: _13  and  _17
REMARK    6  A    between atoms: _20  and  _23
REMARK                            x       y       z     vdW  Elec       q    Type
REMARK                         _______ _______ _______ _____ _____    ______ ____
ROOT
ATOM      1  C   UNL     1      43.784 -43.964  53.511  0.00  0.00    +0.019 A 
ATOM      2  C   UNL     1      43.955 -42.804  54.266  0.00  0.00    +0.099 A 
ATOM      3  N   UNL     1      42.963 -42.393  55.036  0.00  0.00    -0.242 NA
ATOM      4  C   UNL     1      41.764 -43.043  55.148  0.00  0.00    +0.099 A 
ATOM      5  C   UNL     1      41.559 -44.209  54.403  0.00  0.00    +0.019 A 
ATOM      6  C   UNL     1      42.569 -44.687  53.597  0.00  0.00    +0.003 A 
ENDROOT
BRANCH   1   9
ATOM      7  C   UNL     1      47.216 -45.110  52.180  0.00  0.00    +0.175 A 
ATOM      8  C   UNL     1      46.249 -44.572  53.029  0.00  0.00    +0.040 A 
ATOM      9  C   UNL     1      44.885 -44.511  52.580  0.00  0.00    +0.008 A 
ATOM     10  C   UNL     1      44.552 -44.978  51.291  0.00  0.00    +0.040 A 
ATOM     11  C   UNL     1      45.591 -45.480  50.413  0.00  0.00    +0.175 A 
ATOM     12  C   UNL     1      46.896 -45.574  50.879  0.00  0.00    +0.206 A 
BRANCH   7  14
ATOM     13  C   UNL     1      48.764 -44.910  53.872  0.00  0.00    +0.253 C 
ATOM     14  O   UNL     1      48.548 -45.186  52.550  0.00  0.00    -0.468 OA
ENDBRANCH   7  14
BRANCH  11  15
ATOM     15  O   UNL     1      45.348 -45.977  49.120  0.00  0.00    -0.468 OA
ATOM     16  C   UNL     1      44.205 -45.662  48.459  0.00  0.00    +0.253 C 
ENDBRANCH  11  15
BRANCH  12  17
ATOM     17  O   UNL     1      47.932 -46.077  50.084  0.00  0.00    -0.465 OA
ATOM     18  C   UNL     1      48.896 -45.125  49.716  0.00  0.00    +0.253 C 
ENDBRANCH  12  17
ENDBRANCH   1   9
BRANCH   5  19
ATOM     19  C   UNL     1      40.310 -44.968  54.502  0.00  0.00    +0.002 A 
ATOM     20  C   UNL     1      39.874 -45.751  53.438  0.00  0.00    +0.001 A 
ATOM     21  C   UNL     1      38.653 -46.544  53.526  0.00  0.00    +0.015 A 
ATOM     22  C   UNL     1      37.907 -46.523  54.641  0.00  0.00    +0.048 A 
ATOM     23  C   UNL     1      38.346 -45.729  55.747  0.00  0.00    +0.015 A 
ATOM     24  C   UNL     1      39.583 -44.961  55.678  0.00  0.00    +0.001 A 
BRANCH  22  25
ATOM     25  N   UNL     1      36.733 -47.289  54.711  0.00  0.00    -0.305 N 
ATOM     26  C   UNL     1      36.204 -47.570  55.999  0.00  0.00    +0.110 C 
ATOM     27  C   UNL     1      34.749 -48.014  55.904  0.00  0.00    +0.110 C 
ATOM     28  N   UNL     1      34.669 -49.297  55.266  0.00  0.00    -0.214 NA
ATOM     29  C   UNL     1      35.474 -49.408  54.091  0.00  0.00    +0.110 C 
ATOM     30  C   UNL     1      36.141 -48.089  53.659  0.00  0.00    +0.110 C 
ENDBRANCH  22  25
ENDBRANCH   5  19
TORSDOF 6
