REMARK  Name = 4C02_TAK.pdb
REMARK  3 active torsions:
REMARK  status: ('A' for Active; 'I' for Inactive)
REMARK    1  A    between atoms: _1  and  _7
REMARK    2  A    between atoms: _12  and  _13
REMARK    3  A    between atoms: _18  and  _19
REMARK                            x       y       z     vdW  Elec       q    Type
REMARK                         _______ _______ _______ _____ _____    ______ ____
ROOT
ATOM      1  C   UNL     1     -48.641  11.094  17.893  0.00  0.00    +0.038 A 
ATOM      2  C   UNL     1     -48.758  11.854  16.716  0.00  0.00    +0.102 A 
ATOM      3  N   UNL     1     -49.892  11.860  15.981  0.00  0.00    -0.225 NA
ATOM      4  C   UNL     1     -50.980  11.080  16.358  0.00  0.00    +0.165 A 
ATOM      5  C   UNL     1     -52.267  10.911  15.780  0.00  0.00    +0.057 A 
ATOM      6  C   UNL     1     -52.896  10.002  16.627  0.00  0.00    +0.124 A 
ATOM      7  N   UNL     1     -52.064   9.648  17.645  0.00  0.00    -0.162 NA
ATOM      8  N   UNL     1     -50.892  10.340  17.439  0.00  0.00    -0.211 N 
ATOM      9  C   UNL     1     -49.754  10.329  18.243  0.00  0.00    +0.104 A 
ENDROOT
BRANCH   1  13
ATOM     10  C   UNL     1     -45.087  11.205  20.310  0.00  0.00    +0.139 A 
ATOM     11  C   UNL     1     -45.039  11.500  18.974  0.00  0.00    +0.037 A 
ATOM     12  C   UNL     1     -46.193  11.461  18.175  0.00  0.00    +0.003 A 
ATOM     13  C   UNL     1     -47.436  11.114  18.714  0.00  0.00    +0.003 A 
ATOM     14  C   UNL     1     -47.495  10.844  20.080  0.00  0.00    +0.003 A 
ATOM     15  C   UNL     1     -46.347  10.881  20.867  0.00  0.00    +0.037 A 
BRANCH  10  16
ATOM     16  O   UNL     1     -43.863  11.258  21.072  0.00  0.00    -0.471 OA
ATOM     17  C   UNL     1     -43.828  10.653  22.343  0.00  0.00    +0.252 C 
ENDBRANCH  10  16
ENDBRANCH   1  13
BRANCH   5  18
ATOM     18  C   UNL     1     -52.840  11.470  14.634  0.00  0.00    +0.008 A 
ATOM     19  C   UNL     1     -52.149  11.696  13.459  0.00  0.00    +0.021 A 
ATOM     20  C   UNL     1     -52.799  12.246  12.363  0.00  0.00    +0.099 A 
ATOM     21  N   UNL     1     -54.103  12.542  12.430  0.00  0.00    -0.242 NA
ATOM     22  C   UNL     1     -54.819  12.327  13.535  0.00  0.00    +0.099 A 
ATOM     23  C   UNL     1     -54.191  11.785  14.645  0.00  0.00    +0.021 A 
ENDBRANCH   5  18
TORSDOF 3
