REMARK  Name = 4DYM_IYZ.pdb
REMARK  4 active torsions:
REMARK  status: ('A' for Active; 'I' for Inactive)
REMARK    1  A    between atoms: _11  and  _18
REMARK    2  A    between atoms: _11  and  _21
REMARK    3  A    between atoms: _12  and  _13
REMARK    4  A    between atoms: _14  and  _16
REMARK                            x       y       z     vdW  Elec       q    Type
REMARK                         _______ _______ _______ _____ _____    ______ ____
ROOT
ATOM      1  C   UNL     1      -6.318 -25.143  16.994  0.00  0.00    +0.104 A 
ATOM      2  N   UNL     1      -6.096 -24.872  15.643  0.00  0.00    -0.210 N 
ATOM      3  N   UNL     1      -5.827 -23.830  15.024  0.00  0.00    -0.147 NA
ATOM      4  C   UNL     1      -5.616 -23.785  13.686  0.00  0.00    +0.168 A 
ATOM      5  N   UNL     1      -5.374 -22.592  13.087  0.00  0.00    -0.219 NA
ATOM      6  C   UNL     1      -5.661 -24.972  12.942  0.00  0.00    +0.041 A 
ATOM      7  C   UNL     1      -5.927 -26.142  13.615  0.00  0.00    +0.042 A 
ATOM      8  C   UNL     1      -6.154 -26.101  14.987  0.00  0.00    +0.164 A 
ATOM      9  N   UNL     1      -6.457 -27.030  15.902  0.00  0.00    -0.223 NA
ATOM     10  C   UNL     1      -6.523 -26.469  17.117  0.00  0.00    +0.120 A 
ENDROOT
BRANCH   1  13
ATOM     11  C   UNL     1      -6.699 -21.834  18.613  0.00  0.00    +0.035 A 
ATOM     12  C   UNL     1      -6.731 -22.856  17.681  0.00  0.00    +0.004 A 
ATOM     13  C   UNL     1      -6.285 -24.149  17.972  0.00  0.00    +0.019 A 
ATOM     14  C   UNL     1      -5.732 -24.410  19.236  0.00  0.00    +0.002 A 
ATOM     15  C   UNL     1      -5.682 -23.376  20.190  0.00  0.00    +0.000 A 
ATOM     16  C   UNL     1      -6.177 -22.091  19.874  0.00  0.00    +0.003 A 
BRANCH  11  18
ATOM     17  C   UNL     1      -8.379 -20.347  17.172  0.00  0.00    +0.077 C 
ATOM     18  C   UNL     1      -7.281 -20.434  18.226  0.00  0.00    +0.173 C 
ATOM     19  O   UNL     1      -6.920 -19.398  18.790  0.00  0.00    -0.291 OA
ENDBRANCH  11  18
ENDBRANCH   1  13
BRANCH   5  20
ATOM     20  C   UNL     1      -4.888 -21.426  13.831  0.00  0.00    +0.114 C 
BRANCH  20  21
ATOM     21  C   UNL     1      -5.355 -20.090  13.215  0.00  0.00    +0.022 C 
ATOM     22  C   UNL     1      -6.830 -19.984  12.804  0.00  0.00    +0.002 C 
ATOM     23  C   UNL     1      -6.368 -19.302  14.081  0.00  0.00    +0.002 C 
ENDBRANCH  20  21
ENDBRANCH   5  20
TORSDOF 4
