REMARK  Name = 5OXG_B4B.pdb
REMARK  3 active torsions:
REMARK  status: ('A' for Active; 'I' for Inactive)
REMARK    1  A    between atoms: _3  and  _7
REMARK    2  A    between atoms: _10  and  _13
REMARK    3  A    between atoms: _17  and  _22
REMARK                            x       y       z     vdW  Elec       q    Type
REMARK                         _______ _______ _______ _____ _____    ______ ____
ROOT
ATOM      1  C   UNL     1     185.373 -45.159  17.468  0.00  0.00    +0.038 A 
ATOM      2  C   UNL     1     185.985 -46.390  17.736  0.00  0.00    +0.104 A 
ATOM      3  N   UNL     1     186.245 -46.769  19.030  0.00  0.00    -0.211 N 
ATOM      4  N   UNL     1     186.843 -47.898  19.527  0.00  0.00    -0.162 NA
ATOM      5  C   UNL     1     186.860 -47.830  20.865  0.00  0.00    +0.124 A 
ATOM      6  C   UNL     1     186.273 -46.637  21.267  0.00  0.00    +0.057 A 
ATOM      7  C   UNL     1     185.894 -45.994  20.052  0.00  0.00    +0.165 A 
ATOM      8  N   UNL     1     185.285 -44.787  19.834  0.00  0.00    -0.225 NA
ATOM      9  C   UNL     1     185.003 -44.379  18.579  0.00  0.00    +0.102 A 
ENDROOT
BRANCH   6  10
ATOM     10  C   UNL     1     186.159 -46.238  22.612  0.00  0.00    +0.006 A 
ATOM     11  C   UNL     1     184.952 -45.793  23.261  0.00  0.00    +0.018 A 
ATOM     12  C   UNL     1     183.693 -45.651  22.577  0.00  0.00    +0.003 A 
ATOM     13  C   UNL     1     182.580 -45.200  23.281  0.00  0.00    +0.021 A 
ATOM     14  C   UNL     1     182.685 -44.899  24.645  0.00  0.00    +0.099 A 
ATOM     15  N   UNL     1     183.861 -45.027  25.295  0.00  0.00    -0.244 NA
ATOM     16  C   UNL     1     184.981 -45.469  24.608  0.00  0.00    +0.081 A 
ATOM     17  C   UNL     1     186.177 -45.572  25.371  0.00  0.00    +0.019 A 
ATOM     18  C   UNL     1     187.339 -46.033  24.754  0.00  0.00    +0.002 A 
ATOM     19  C   UNL     1     187.321 -46.347  23.388  0.00  0.00    +0.000 A 
ENDBRANCH   6  10
BRANCH   1  23
ATOM     20  C   UNL     1     184.361 -44.072  13.486  0.00  0.00    +0.048 A 
ATOM     21  C   UNL     1     185.416 -44.921  13.745  0.00  0.00    +0.015 A 
ATOM     22  C   UNL     1     185.758 -45.273  15.047  0.00  0.00    +0.001 A 
ATOM     23  C   UNL     1     185.059 -44.777  16.145  0.00  0.00    +0.003 A 
ATOM     24  C   UNL     1     183.966 -43.948  15.880  0.00  0.00    +0.001 A 
ATOM     25  C   UNL     1     183.626 -43.612  14.577  0.00  0.00    +0.015 A 
BRANCH  20  30
ATOM     26  C   UNL     1     182.820 -42.339  10.427  0.00  0.00    +0.110 C 
ATOM     27  N   UNL     1     182.534 -43.485   9.609  0.00  0.00    -0.214 NA
ATOM     28  C   UNL     1     183.459 -44.578   9.840  0.00  0.00    +0.110 C 
ATOM     29  C   UNL     1     183.658 -44.902  11.318  0.00  0.00    +0.110 C 
ATOM     30  N   UNL     1     184.019 -43.764  12.130  0.00  0.00    -0.305 N 
ATOM     31  C   UNL     1     183.097 -42.684  11.887  0.00  0.00    +0.110 C 
ENDBRANCH  20  30
ENDBRANCH   1  23
TORSDOF 3
