REMARK  Name = 5OY6_B4E.pdb
REMARK  0 active torsions:
REMARK  status: ('A' for Active; 'I' for Inactive)
REMARK                            x       y       z     vdW  Elec       q    Type
REMARK                         _______ _______ _______ _____ _____    ______ ____
ROOT
ATOM      1 CL   UNL     1      18.004  -5.508 -22.154  0.00  0.00    -0.082 Cl
ATOM      2  C   UNL     1      16.950  -5.648 -20.763  0.00  0.00    +0.061 A 
ATOM      3  C   UNL     1      17.370  -5.086 -19.569  0.00  0.00    +0.012 A 
ATOM      4  C   UNL     1      16.574  -5.176 -18.434  0.00  0.00    +0.008 A 
ATOM      5  C   UNL     1      17.017  -4.598 -17.242  0.00  0.00    +0.057 A 
ATOM      6  C   UNL     1      16.734  -5.041 -15.924  0.00  0.00    +0.167 A 
ATOM      7  N   UNL     1      15.983  -6.112 -15.486  0.00  0.00    -0.210 NA
ATOM      8  C   UNL     1      15.862  -6.330 -14.164  0.00  0.00    +0.151 A 
ATOM      9  N   UNL     1      15.091  -7.436 -13.701  0.00  0.00    -0.218 NA
ATOM     10  C   UNL     1      14.718  -8.468 -14.612  0.00  0.00    +0.146 C 
ATOM     11  C   UNL     1      13.546  -7.980 -15.428  0.00  0.00    +0.166 C 
ATOM     12  O   UNL     1      13.766  -8.438 -16.761  0.00  0.00    -0.348 OA
ATOM     13  C   UNL     1      12.818  -7.963 -17.718  0.00  0.00    +0.189 C 
ATOM     14  C   UNL     1      13.462  -8.241 -19.052  0.00  0.00    +0.237 C 
ATOM     15  O   UNL     1      13.638  -7.031 -19.763  0.00  0.00    -0.473 OA
ATOM     16  C   UNL     1      14.910  -6.397 -19.695  0.00  0.00    +0.140 A 
ATOM     17  C   UNL     1      16.495  -5.475 -13.248  0.00  0.00    +0.057 A 
ATOM     18  C   UNL     1      17.241  -4.401 -13.719  0.00  0.00    +0.105 A 
ATOM     19  N   UNL     1      17.340  -4.225 -15.075  0.00  0.00    -0.211 N 
ATOM     20  N   UNL     1      18.001  -3.234 -15.777  0.00  0.00    -0.162 NA
ATOM     21  C   UNL     1      17.806  -3.458 -17.096  0.00  0.00    +0.124 A 
ATOM     22  C   UNL     1      15.337  -5.830 -18.500  0.00  0.00    +0.037 A 
ATOM     23  C   UNL     1      15.720  -6.302 -20.831  0.00  0.00    +0.048 A 
ENDROOT
TORSDOF 0
