REMARK  Name = 5S88_LU8.pdb
REMARK  6 active torsions:
REMARK  status: ('A' for Active; 'I' for Inactive)
REMARK    1  A    between atoms: _2  and  _3
REMARK    2  A    between atoms: _5  and  _6
REMARK    3  A    between atoms: _10  and  _11
REMARK    4  A    between atoms: _14  and  _15
REMARK    5  A    between atoms: _27  and  _28
REMARK    6  A    between atoms: _30  and  _31
REMARK                            x       y       z     vdW  Elec       q    Type
REMARK                         _______ _______ _______ _____ _____    ______ ____
ROOT
ATOM      1  C   UNL     1     -18.648  40.002  12.718  0.00  0.00    +0.015 A 
ATOM      2  C   UNL     1     -17.708  40.096  11.703  0.00  0.00    -0.019 A 
ATOM      3  C   UNL     1     -17.791  39.153  10.540  0.00  0.00    +0.031 C 
ATOM      4  C   UNL     1     -16.690  41.094  11.715  0.00  0.00    +0.015 A 
ATOM      5  C   UNL     1     -16.772  41.965  12.766  0.00  0.00    +0.099 A 
ATOM      6  N   UNL     1     -17.662  41.902  13.713  0.00  0.00    -0.242 NA
ATOM      7  C   UNL     1     -18.597  40.944  13.724  0.00  0.00    +0.099 A 
ENDROOT
BRANCH   1  12
ATOM      8  C   UNL     1     -21.925  38.166  12.220  0.00  0.00    +0.175 A 
ATOM      9  C   UNL     1     -21.566  36.877  12.558  0.00  0.00    +0.206 A 
ATOM     10  C   UNL     1     -20.289  36.625  13.008  0.00  0.00    +0.175 A 
ATOM     11  C   UNL     1     -19.369  37.650  13.073  0.00  0.00    +0.040 A 
ATOM     12  C   UNL     1     -19.709  38.959  12.700  0.00  0.00    +0.007 A 
ATOM     13  C   UNL     1     -21.020  39.211  12.299  0.00  0.00    +0.040 A 
BRANCH   8  15
ATOM     14  C   UNL     1     -23.591  39.616  11.324  0.00  0.00    +0.253 C 
ATOM     15  O   UNL     1     -23.222  38.318  11.847  0.00  0.00    -0.468 OA
ENDBRANCH   8  15
BRANCH   9  16
ATOM     16  O   UNL     1     -22.465  35.844  12.443  0.00  0.00    -0.465 OA
ATOM     17  C   UNL     1     -23.205  35.494  13.563  0.00  0.00    +0.253 C 
ENDBRANCH   9  16
BRANCH  10  18
ATOM     18  O   UNL     1     -20.005  35.310  13.336  0.00  0.00    -0.468 OA
ATOM     19  C   UNL     1     -18.716  34.928  13.829  0.00  0.00    +0.253 C 
ENDBRANCH  10  18
ENDBRANCH   1  12
BRANCH   4  20
ATOM     20  C   UNL     1     -15.649  41.255  10.690  0.00  0.00    +0.001 A 
ATOM     21  C   UNL     1     -14.870  40.123  10.254  0.00  0.00    -0.000 A 
ATOM     22  C   UNL     1     -13.878  40.230   9.312  0.00  0.00    -0.004 A 
ATOM     23  C   UNL     1     -13.554  41.483   8.765  0.00  0.00    -0.022 A 
ATOM     24  C   UNL     1     -14.331  42.584   9.185  0.00  0.00    -0.004 A 
ATOM     25  C   UNL     1     -15.291  42.497  10.128  0.00  0.00    -0.000 A 
BRANCH  23  26
ATOM     26  C   UNL     1     -12.524  41.495   7.694  0.00  0.00    +0.025 C 
ATOM     27  C   UNL     1     -11.115  41.694   8.169  0.00  0.00    +0.022 C 
ATOM     28  C   UNL     1     -10.220  41.501   6.948  0.00  0.00    +0.072 C 
ATOM     29  N   UNL     1     -10.403  42.607   5.964  0.00  0.00    -0.271 NA
ATOM     30  C   UNL     1      -9.933  43.903   6.515  0.00  0.00    +0.090 C 
ATOM     31  C   UNL     1     -11.805  42.663   5.482  0.00  0.00    +0.072 C 
ATOM     32  C   UNL     1     -12.875  42.495   6.580  0.00  0.00    +0.022 C 
ENDBRANCH  23  26
ENDBRANCH   4  20
TORSDOF 6
