REMARK  Name = 6GI6_EZB.pdb
REMARK  2 active torsions:
REMARK  status: ('A' for Active; 'I' for Inactive)
REMARK    1  A    between atoms: _1  and  _2
REMARK    2  A    between atoms: _3  and  _13
REMARK                            x       y       z     vdW  Elec       q    Type
REMARK                         _______ _______ _______ _____ _____    ______ ____
ROOT
ATOM      1  C   UNL     1     -12.949 156.141 161.352  0.00  0.00    +0.045 C 
ATOM      2  C   UNL     1     -13.681 154.820 161.193  0.00  0.00    -0.028 A 
ATOM      3  C   UNL     1     -15.059 154.822 160.787  0.00  0.00    +0.068 A 
ATOM      4  C   UNL     1     -15.832 156.100 160.511  0.00  0.00    +0.259 A 
ATOM      5  O   UNL     1     -15.336 157.203 160.612  0.00  0.00    -0.267 OA
ATOM      6  N   UNL     1     -17.172 156.034 160.121  0.00  0.00    -0.313 N 
ATOM      7  C   UNL     1     -17.824 154.781 159.974  0.00  0.00    +0.199 A 
ATOM      8  N   UNL     1     -17.104 153.569 160.232  0.00  0.00    -0.237 NA
ATOM      9  H   UNL     1     -17.633 156.804 159.959  0.00  0.00    +0.170 HD
ATOM     10  C   UNL     1     -15.713 153.627 160.642  0.00  0.00    +0.078 A 
ATOM     11  C   UNL     1     -15.052 152.398 160.887  0.00  0.00    +0.029 A 
ATOM     12  C   UNL     1     -13.725 152.398 161.278  0.00  0.00    +0.011 A 
ATOM     13  C   UNL     1     -13.034 153.594 161.453  0.00  0.00    -0.013 A 
ENDROOT
BRANCH  13  14
ATOM     14  C   UNL     1     -11.691 153.441 161.807  0.00  0.00    -0.008 A 
ATOM     15  C   UNL     1     -11.076 153.965 162.986  0.00  0.00    +0.008 A 
ATOM     16  C   UNL     1     -11.805 154.728 163.944  0.00  0.00    +0.012 A 
ATOM     17  C   UNL     1     -11.143 155.215 165.069  0.00  0.00    +0.020 A 
ATOM     18  C   UNL     1      -9.785 154.949 165.253  0.00  0.00    +0.111 A 
ATOM     19  N   UNL     1      -9.115 154.227 164.338  0.00  0.00    -0.255 NA
ATOM     20  C   UNL     1      -9.745 153.734 163.214  0.00  0.00    +0.072 A 
ATOM     21  C   UNL     1      -8.969 152.970 162.299  0.00  0.00    +0.028 A 
ATOM     22  C   UNL     1      -9.563 152.462 161.153  0.00  0.00    +0.003 A 
ATOM     23  C   UNL     1     -10.919 152.693 160.917  0.00  0.00    +0.009 A 
ENDBRANCH  13  14
TORSDOF 1
