REMARK  Name = 6GIP_EUN.pdb
REMARK  3 active torsions:
REMARK  status: ('A' for Active; 'I' for Inactive)
REMARK    1  A    between atoms: _1  and  _2
REMARK    2  A    between atoms: _9  and  _10
REMARK    3  A    between atoms: _20  and  _21
REMARK                            x       y       z     vdW  Elec       q    Type
REMARK                         _______ _______ _______ _____ _____    ______ ____
ROOT
ATOM      1  C   UNL     1     -43.854   0.919 -14.918  0.00  0.00    +0.086 C 
ATOM      2  C   UNL     1     -43.429   2.225 -14.303  0.00  0.00    +0.107 A 
ATOM      3  N   UNL     1     -42.150   2.290 -13.687  0.00  0.00    -0.234 NA
ATOM      4  C   UNL     1     -41.705   3.535 -13.085  0.00  0.00    +0.078 A 
ATOM      5  C   UNL     1     -40.417   3.537 -12.493  0.00  0.00    +0.029 A 
ATOM      6  C   UNL     1     -39.902   4.673 -11.911  0.00  0.00    +0.011 A 
ATOM      7  C   UNL     1     -40.659   5.828 -11.878  0.00  0.00    -0.013 A 
ATOM      8  C   UNL     1     -41.944   5.844 -12.465  0.00  0.00    -0.028 A 
ATOM      9  C   UNL     1     -42.762   7.116 -12.447  0.00  0.00    +0.045 C 
ATOM     10  C   UNL     1     -42.474   4.659 -13.083  0.00  0.00    +0.068 A 
ATOM     11  C   UNL     1     -43.841   4.589 -13.737  0.00  0.00    +0.259 A 
ATOM     12  O   UNL     1     -44.577   5.560 -13.759  0.00  0.00    -0.267 OA
ATOM     13  N   UNL     1     -44.268   3.380 -14.323  0.00  0.00    -0.311 N 
ATOM     14  H   UNL     1     -45.089   3.335 -14.720  0.00  0.00    +0.170 HD
ENDROOT
BRANCH   7  15
ATOM     15  C   UNL     1     -40.100   6.961 -11.287  0.00  0.00    -0.007 A 
ATOM     16  C   UNL     1     -40.635   7.594 -10.117  0.00  0.00    +0.008 A 
ATOM     17  C   UNL     1     -41.782   7.084  -9.459  0.00  0.00    +0.010 A 
ATOM     18  C   UNL     1     -42.289   7.721  -8.325  0.00  0.00    +0.001 A 
ATOM     19  C   UNL     1     -41.673   8.868  -7.835  0.00  0.00    +0.002 A 
ATOM     20  C   UNL     1     -40.552   9.369  -8.483  0.00  0.00    +0.028 A 
ATOM     21  C   UNL     1     -40.037   8.718  -9.637  0.00  0.00    +0.072 A 
ATOM     22  N   UNL     1     -38.911   9.240 -10.252  0.00  0.00    -0.255 NA
ATOM     23  C   UNL     1     -38.382   8.664 -11.348  0.00  0.00    +0.112 A 
ATOM     24  C   UNL     1     -38.979   7.515 -11.883  0.00  0.00    +0.029 A 
ENDBRANCH   7  15
TORSDOF 1
