REMARK  Name = 6T6D_MM8.pdb
REMARK  7 active torsions:
REMARK  status: ('A' for Active; 'I' for Inactive)
REMARK    1  A    between atoms: _1  and  _2
REMARK    2  A    between atoms: _2  and  _3
REMARK    3  A    between atoms: _5  and  _6
REMARK    4  A    between atoms: _10  and  _11
REMARK    5  A    between atoms: _14  and  _15
REMARK    6  A    between atoms: _23  and  _24
REMARK    7  A    between atoms: _27  and  _28
REMARK                            x       y       z     vdW  Elec       q    Type
REMARK                         _______ _______ _______ _____ _____    ______ ____
ROOT
ATOM      1  C   UNL     1      55.328   2.879  43.550  0.00  0.00    +0.004 A 
ATOM      2  C   UNL     1      56.538   3.607  43.519  0.00  0.00    -0.032 A 
ATOM      3  C   UNL     1      56.637   4.891  42.717  0.00  0.00    +0.045 C 
ATOM      4  C   UNL     1      57.654   3.099  44.252  0.00  0.00    +0.004 A 
ATOM      5  C   UNL     1      57.510   1.937  44.970  0.00  0.00    +0.119 A 
ATOM      6  N   UNL     1      56.354   1.271  44.984  0.00  0.00    -0.262 NA
ATOM      7  C   UNL     1      55.296   1.721  44.302  0.00  0.00    +0.119 A 
ENDROOT
BRANCH   1  12
ATOM      8  C   UNL     1      51.738   3.663  42.763  0.00  0.00    +0.133 A 
ATOM      9  C   UNL     1      51.832   3.974  41.400  0.00  0.00    +0.078 A 
ATOM     10  C   UNL     1      53.083   3.913  40.749  0.00  0.00    +0.017 A 
ATOM     11  C   UNL     1      54.227   3.546  41.471  0.00  0.00    +0.009 A 
ATOM     12  C   UNL     1      54.148   3.260  42.845  0.00  0.00    -0.013 A 
ATOM     13  C   UNL     1      52.886   3.299  43.486  0.00  0.00    +0.055 A 
BRANCH   9  14
ATOM     14  C   UNL     1      50.575   4.359  40.615  0.00  0.00    +0.245 C 
ATOM     15  O   UNL     1      50.666   4.929  39.591  0.00  0.00    -0.270 OA
ATOM     16  N   UNL     1      49.272   4.006  41.128  0.00  0.00    -0.325 N 
ATOM     17  H   UNL     1      49.201   3.587  41.875  0.00  0.00    +0.145 HD
ATOM     18  H   UNL     1      48.566   4.216  40.685  0.00  0.00    +0.145 HD
ENDBRANCH   9  14
BRANCH   8  20
ATOM     19  C   UNL     1      50.480   3.743  44.837  0.00  0.00    +0.277 C 
ATOM     20  O   UNL     1      50.445   3.724  43.409  0.00  0.00    -0.494 OA
ENDBRANCH   8  20
ENDBRANCH   1  12
BRANCH   4  21
ATOM     21  C   UNL     1      58.930   3.744  44.280  0.00  0.00    -0.016 A 
ATOM     22  C   UNL     1      59.623   3.943  45.487  0.00  0.00    +0.010 A 
ATOM     23  C   UNL     1      60.888   4.578  45.478  0.00  0.00    +0.024 A 
ATOM     24  C   UNL     1      61.455   4.996  44.269  0.00  0.00    +0.030 A 
ATOM     25  C   UNL     1      60.770   4.782  43.061  0.00  0.00    +0.024 A 
ATOM     26  C   UNL     1      59.523   4.145  43.073  0.00  0.00    +0.010 A 
BRANCH  24  27
ATOM     27  N   UNL     1      62.785   5.662  44.239  0.00  0.00    -0.327 N 
ATOM     28  C   UNL     1      63.779   5.433  45.328  0.00  0.00    +0.120 C 
ATOM     29  C   UNL     1      65.204   5.799  44.895  0.00  0.00    +0.100 C 
ATOM     30  N   UNL     1      65.301   7.136  44.407  0.00  0.00    -0.313 NA
ATOM     31  H   UNL     1      65.183   7.692  45.063  0.00  0.00    +0.122 HD
ATOM     32  C   UNL     1      64.368   7.416  43.377  0.00  0.00    +0.100 C 
ATOM     33  C   UNL     1      62.928   7.084  43.784  0.00  0.00    +0.120 C 
ENDBRANCH  24  27
ENDBRANCH   4  21
TORSDOF 5
