REMARK  Name = 6Z36_Q5Z.pdb
REMARK  10 active torsions:
REMARK  status: ('A' for Active; 'I' for Inactive)
REMARK    1  A    between atoms: _1  and  _2
REMARK    2  A    between atoms: _2  and  _3
REMARK    3  A    between atoms: _5  and  _6
REMARK    4  A    between atoms: _10  and  _11
REMARK    5  A    between atoms: _14  and  _15
REMARK    6  A    between atoms: _23  and  _24
REMARK    7  A    between atoms: _26  and  _27
REMARK    8  A    between atoms: _27  and  _28
REMARK    9  A    between atoms: _29  and  _30
REMARK   10  A    between atoms: _30  and  _31
REMARK                            x       y       z     vdW  Elec       q    Type
REMARK                         _______ _______ _______ _____ _____    ______ ____
ROOT
ATOM      1  C   UNL     1     -29.943  22.330  14.257  0.00  0.00    +0.004 A 
ATOM      2  C   UNL     1     -31.174  21.800  14.714  0.00  0.00    -0.032 A 
ATOM      3  C   UNL     1     -31.184  20.535  15.567  0.00  0.00    +0.045 C 
ATOM      4  C   UNL     1     -32.378  22.469  14.419  0.00  0.00    +0.004 A 
ATOM      5  C   UNL     1     -32.305  23.638  13.669  0.00  0.00    +0.119 A 
ATOM      6  N   UNL     1     -31.147  24.125  13.248  0.00  0.00    -0.262 NA
ATOM      7  C   UNL     1     -30.016  23.502  13.529  0.00  0.00    +0.119 A 
ENDROOT
BRANCH   1  12
ATOM      8  C   UNL     1     -27.250  19.753  14.235  0.00  0.00    +0.166 A 
ATOM      9  C   UNL     1     -26.223  20.413  14.872  0.00  0.00    +0.204 A 
ATOM     10  C   UNL     1     -26.405  21.714  15.310  0.00  0.00    +0.166 A 
ATOM     11  C   UNL     1     -27.628  22.367  15.109  0.00  0.00    +0.058 A 
ATOM     12  C   UNL     1     -28.677  21.711  14.483  0.00  0.00    -0.009 A 
ATOM     13  C   UNL     1     -28.469  20.403  14.018  0.00  0.00    +0.058 A 
BRANCH   8  15
ATOM     14  C   UNL     1     -28.051  17.686  13.358  0.00  0.00    +0.277 C 
ATOM     15  O   UNL     1     -26.962  18.452  13.808  0.00  0.00    -0.491 OA
ENDBRANCH   8  15
BRANCH   9  16
ATOM     16  O   UNL     1     -25.018  19.742  15.072  0.00  0.00    -0.488 OA
ATOM     17  C   UNL     1     -24.006  20.033  14.151  0.00  0.00    +0.277 C 
ENDBRANCH   9  16
BRANCH  10  18
ATOM     18  O   UNL     1     -25.331  22.328  15.953  0.00  0.00    -0.491 OA
ATOM     19  C   UNL     1     -25.534  23.603  16.464  0.00  0.00    +0.277 C 
ENDBRANCH  10  18
ENDBRANCH   1  12
BRANCH   4  20
ATOM     20  C   UNL     1     -33.662  22.010  14.830  0.00  0.00    -0.016 A 
ATOM     21  C   UNL     1     -34.029  20.669  14.729  0.00  0.00    +0.009 A 
ATOM     22  C   UNL     1     -35.285  20.213  15.104  0.00  0.00    +0.005 A 
ATOM     23  C   UNL     1     -36.230  21.103  15.601  0.00  0.00    -0.040 A 
ATOM     24  C   UNL     1     -35.891  22.442  15.709  0.00  0.00    +0.005 A 
ATOM     25  C   UNL     1     -34.625  22.889  15.316  0.00  0.00    +0.009 A 
BRANCH  23  26
ATOM     26  C   UNL     1     -37.606  20.624  16.033  0.00  0.00    +0.011 C 
ATOM     27  C   UNL     1     -37.885  19.270  15.854  0.00  0.00    +0.028 C 
ATOM     28  C   UNL     1     -39.404  18.858  16.312  0.00  0.00    +0.082 C 
ATOM     29  N   UNL     1     -40.149  19.870  16.687  0.00  0.00    -0.316 NA
ATOM     30  H   UNL     1     -40.362  20.324  15.979  0.00  0.00    +0.122 HD
ATOM     31  C   UNL     1     -39.482  20.877  17.742  0.00  0.00    +0.085 C 
ATOM     32  C   UNL     1     -38.153  21.250  17.335  0.00  0.00    +0.019 C 
ENDBRANCH  23  26
ENDBRANCH   4  20
TORSDOF 6
