REMARK  Name = 6ZGC_H8H.pdb
REMARK  7 active torsions:
REMARK  status: ('A' for Active; 'I' for Inactive)
REMARK    1  A    between atoms: _6  and  _7
REMARK    2  A    between atoms: _7  and  _8
REMARK    3  A    between atoms: _8  and  _9
REMARK    4  A    between atoms: _9  and  _10
REMARK    5  A    between atoms: _12  and  _13
REMARK    6  A    between atoms: _13  and  _14
REMARK    7  A    between atoms: _22  and  _23
REMARK                            x       y       z     vdW  Elec       q    Type
REMARK                         _______ _______ _______ _____ _____    ______ ____
ROOT
ATOM      1  N   UNL     1     181.595 -39.329  23.696  0.00  0.00    -0.190 NA
ATOM      2  C   UNL     1     182.142 -40.288  22.719  0.00  0.00    +0.158 A 
ATOM      3  N   UNL     1     182.774 -41.444  23.102  0.00  0.00    -0.207 NA
ATOM      4  C   UNL     1     183.254 -42.303  22.180  0.00  0.00    +0.200 A 
ATOM      5  N   UNL     1     183.158 -42.080  20.865  0.00  0.00    -0.224 NA
ATOM      6  C   UNL     1     182.512 -40.887  20.380  0.00  0.00    +0.092 A 
ATOM      7  C   UNL     1     182.388 -40.618  18.956  0.00  0.00    +0.056 A 
ATOM      8  C   UNL     1     181.770 -39.485  18.543  0.00  0.00    +0.143 A 
ATOM      9  C   UNL     1     181.229 -38.531  19.532  0.00  0.00    +0.074 A 
ATOM     10  C   UNL     1     181.345 -38.796  20.876  0.00  0.00    +0.146 A 
ATOM     11  C   UNL     1     181.999 -39.989  21.312  0.00  0.00    +0.085 A 
ENDROOT
BRANCH   1  21
ATOM     12 CL   UNL     1     179.019 -39.384  25.138  0.00  0.00    -0.081 Cl
ATOM     13  C   UNL     1     180.520 -39.517  25.874  0.00  0.00    +0.076 A 
ATOM     14  C   UNL     1     180.599 -39.662  27.268  0.00  0.00    +0.016 A 
ATOM     15  C   UNL     1     181.850 -39.774  27.896  0.00  0.00    +0.041 A 
ATOM     16  C   UNL     1     183.046 -39.739  27.106  0.00  0.00    +0.178 A 
ATOM     17  O   UNL     1     184.413 -39.832  27.467  0.00  0.00    -0.435 OA
ATOM     18  C   UNL     1     185.167 -39.504  26.319  0.00  0.00    +0.429 C 
ATOM     19  O   UNL     1     184.298 -39.597  25.219  0.00  0.00    -0.433 OA
ATOM     20  C   UNL     1     182.967 -39.597  25.743  0.00  0.00    +0.192 A 
ATOM     21  C   UNL     1     181.685 -39.487  25.102  0.00  0.00    +0.120 A 
ENDBRANCH   1  21
BRANCH  10  22
ATOM     22  O   UNL     1     180.844 -37.903  21.861  0.00  0.00    -0.479 OA
BRANCH  22  23
ATOM     23  C   UNL     1     179.660 -37.104  21.361  0.00  0.00    +0.171 C 
ATOM     24  C   UNL     1     179.588 -35.902  22.168  0.00  0.00    +0.076 C 
ATOM     25  C   UNL     1     178.280 -35.131  21.975  0.00  0.00    +0.146 C 
ATOM     26  O   UNL     1     177.122 -35.984  22.132  0.00  0.00    -0.354 OA
ATOM     27  C   UNL     1     177.186 -37.127  21.244  0.00  0.00    +0.146 C 
ATOM     28  C   UNL     1     178.464 -37.930  21.466  0.00  0.00    +0.076 C 
ENDBRANCH  22  23
ENDBRANCH  10  22
BRANCH   8  29
ATOM     29  O   UNL     1     181.624 -39.178  17.171  0.00  0.00    -0.473 OA
BRANCH  29  30
ATOM     30  C   UNL     1     182.078 -40.153  16.232  0.00  0.00    +0.227 C 
BRANCH  30  31
ATOM     31  C   UNL     1     182.676 -39.350  14.999  0.00  0.00    +0.139 C 
BRANCH  31  32
ATOM     32  N   UNL     1     181.954 -39.362  13.998  0.00  0.00    -0.300 N 
ATOM     33  C   UNL     1     182.759 -38.919  12.888  0.00  0.00    +0.078 C 
ATOM     34  C   UNL     1     182.551 -37.482  12.375  0.00  0.00    +0.077 C 
ATOM     35  N   UNL     1     181.460 -36.869  12.830  0.00  0.00    -0.302 N 
ATOM     36  C   UNL     1     181.100 -37.195  14.136  0.00  0.00    +0.112 C 
ATOM     37  C   UNL     1     181.623 -35.589  12.735  0.00  0.00    +0.112 C 
ATOM     38  C   UNL     1     180.843 -38.625  14.191  0.00  0.00    +0.112 C 
ENDBRANCH  31  32
ENDBRANCH  30  31
ENDBRANCH  29  30
ENDBRANCH   8  29
TORSDOF 7
