REMARK  Name = 6ZSM_M2Z.pdb
REMARK  10 active torsions:
REMARK  status: ('A' for Active; 'I' for Inactive)
REMARK    1  A    between atoms: _1  and  _2
REMARK    2  A    between atoms: _2  and  _3
REMARK    3  A    between atoms: _5  and  _6
REMARK    4  A    between atoms: _10  and  _11
REMARK    5  A    between atoms: _14  and  _15
REMARK    6  A    between atoms: _23  and  _24
REMARK    7  A    between atoms: _26  and  _27
REMARK    8  A    between atoms: _27  and  _28
REMARK    9  A    between atoms: _29  and  _30
REMARK   10  A    between atoms: _30  and  _31
REMARK                            x       y       z     vdW  Elec       q    Type
REMARK                         _______ _______ _______ _____ _____    ______ ____
ROOT
ATOM      1  C   UNL     1     -29.985  21.743  14.262  0.00  0.00    +0.004 A 
ATOM      2  C   UNL     1     -31.198  21.225  14.752  0.00  0.00    -0.032 A 
ATOM      3  C   UNL     1     -31.208  19.964  15.571  0.00  0.00    +0.045 C 
ATOM      4  C   UNL     1     -32.395  21.917  14.456  0.00  0.00    +0.004 A 
ATOM      5  C   UNL     1     -32.295  23.095  13.727  0.00  0.00    +0.119 A 
ATOM      6  N   UNL     1     -31.139  23.580  13.264  0.00  0.00    -0.262 NA
ATOM      7  C   UNL     1     -30.012  22.942  13.554  0.00  0.00    +0.119 A 
ENDROOT
BRANCH   1  12
ATOM      8  C   UNL     1     -27.364  19.080  14.251  0.00  0.00    +0.166 A 
ATOM      9  C   UNL     1     -26.334  19.729  14.897  0.00  0.00    +0.204 A 
ATOM     10  C   UNL     1     -26.452  21.031  15.292  0.00  0.00    +0.166 A 
ATOM     11  C   UNL     1     -27.650  21.721  15.132  0.00  0.00    +0.058 A 
ATOM     12  C   UNL     1     -28.707  21.097  14.503  0.00  0.00    -0.009 A 
ATOM     13  C   UNL     1     -28.550  19.775  14.055  0.00  0.00    +0.058 A 
BRANCH   8  15
ATOM     14  C   UNL     1     -28.196  17.063  13.324  0.00  0.00    +0.277 C 
ATOM     15  O   UNL     1     -27.088  17.769  13.868  0.00  0.00    -0.491 OA
ENDBRANCH   8  15
BRANCH   9  16
ATOM     16  O   UNL     1     -25.139  19.016  15.092  0.00  0.00    -0.488 OA
ATOM     17  C   UNL     1     -24.107  19.269  14.180  0.00  0.00    +0.277 C 
ENDBRANCH   9  16
BRANCH  10  18
ATOM     18  O   UNL     1     -25.338  21.565  15.923  0.00  0.00    -0.491 OA
ATOM     19  C   UNL     1     -25.506  22.875  16.426  0.00  0.00    +0.277 C 
ENDBRANCH  10  18
ENDBRANCH   1  12
BRANCH   4  20
ATOM     20  C   UNL     1     -33.700  21.451  14.882  0.00  0.00    -0.016 A 
ATOM     21  C   UNL     1     -34.626  22.346  15.393  0.00  0.00    +0.010 A 
ATOM     22  C   UNL     1     -35.910  21.886  15.788  0.00  0.00    +0.024 A 
ATOM     23  C   UNL     1     -36.228  20.544  15.667  0.00  0.00    +0.030 A 
ATOM     24  C   UNL     1     -35.300  19.648  15.154  0.00  0.00    +0.024 A 
ATOM     25  C   UNL     1     -34.041  20.108  14.769  0.00  0.00    +0.010 A 
BRANCH  23  26
ATOM     26  N   UNL     1     -37.568  20.040  16.088  0.00  0.00    -0.327 N 
ATOM     27  C   UNL     1     -38.257  20.805  17.179  0.00  0.00    +0.120 C 
ATOM     28  C   UNL     1     -39.690  20.338  17.441  0.00  0.00    +0.100 C 
ATOM     29  N   UNL     1     -39.810  18.939  17.656  0.00  0.00    -0.313 NA
ATOM     30  H   UNL     1     -39.539  18.764  18.462  0.00  0.00    +0.122 HD
ATOM     31  C   UNL     1     -39.083  18.119  16.752  0.00  0.00    +0.100 C 
ATOM     32  C   UNL     1     -37.654  18.597  16.478  0.00  0.00    +0.120 C 
ENDBRANCH  23  26
ENDBRANCH   4  20
TORSDOF 6
