REMARK  Name = 7A21_QWQ.pdb
REMARK  11 active torsions:
REMARK  status: ('A' for Active; 'I' for Inactive)
REMARK    1  A    between atoms: _1  and  _2
REMARK    2  A    between atoms: _2  and  _3
REMARK    3  A    between atoms: _5  and  _6
REMARK    4  A    between atoms: _10  and  _11
REMARK    5  A    between atoms: _14  and  _15
REMARK    6  A    between atoms: _15  and  _16
REMARK    7  A    between atoms: _23  and  _24
REMARK    8  A    between atoms: _26  and  _27
REMARK    9  A    between atoms: _27  and  _28
REMARK   10  A    between atoms: _29  and  _30
REMARK   11  A    between atoms: _30  and  _31
REMARK                            x       y       z     vdW  Elec       q    Type
REMARK                         _______ _______ _______ _____ _____    ______ ____
ROOT
ATOM      1  C   UNL     1       7.968 -26.569  10.527  0.00  0.00    +0.004 A 
ATOM      2  C   UNL     1       8.301 -25.988   9.287  0.00  0.00    -0.032 A 
ATOM      3  C   UNL     1       8.794 -24.477   9.181  0.00  0.00    +0.045 C 
ATOM      4  C   UNL     1       8.190 -26.789   8.095  0.00  0.00    +0.004 A 
ATOM      5  C   UNL     1       7.742 -28.139   8.253  0.00  0.00    +0.119 A 
ATOM      6  N   UNL     1       7.438 -28.663   9.426  0.00  0.00    -0.262 NA
ATOM      7  C   UNL     1       7.518 -27.937  10.566  0.00  0.00    +0.119 A 
ENDROOT
BRANCH   1  12
ATOM      8  C   UNL     1       8.903 -25.538  14.042  0.00  0.00    +0.166 A 
ATOM      9  C   UNL     1       8.113 -24.434  14.179  0.00  0.00    +0.204 A 
ATOM     10  C   UNL     1       7.262 -24.019  13.130  0.00  0.00    +0.166 A 
ATOM     11  C   UNL     1       7.221 -24.745  11.915  0.00  0.00    +0.058 A 
ATOM     12  C   UNL     1       8.025 -25.847  11.744  0.00  0.00    -0.009 A 
ATOM     13  C   UNL     1       8.881 -26.270  12.821  0.00  0.00    +0.058 A 
BRANCH   8  15
ATOM     14  C   UNL     1      10.642 -26.898  14.889  0.00  0.00    +0.277 C 
ATOM     15  O   UNL     1       9.734 -25.886  15.139  0.00  0.00    -0.491 OA
ENDBRANCH   8  15
BRANCH   9  16
ATOM     16  O   UNL     1       8.155 -23.698  15.371  0.00  0.00    -0.488 OA
ATOM     17  C   UNL     1       7.205 -24.078  16.316  0.00  0.00    +0.277 C 
ENDBRANCH   9  16
BRANCH  10  18
ATOM     18  O   UNL     1       6.488 -22.889  13.343  0.00  0.00    -0.491 OA
ATOM     19  C   UNL     1       6.078 -22.217  12.199  0.00  0.00    +0.277 C 
ENDBRANCH  10  18
ENDBRANCH   1  12
BRANCH   4  20
ATOM     20  C   UNL     1       8.489 -26.343   6.747  0.00  0.00    -0.016 A 
ATOM     21  C   UNL     1       9.239 -27.181   5.860  0.00  0.00    +0.009 A 
ATOM     22  C   UNL     1       9.489 -26.771   4.541  0.00  0.00    +0.005 A 
ATOM     23  C   UNL     1       9.017 -25.571   4.051  0.00  0.00    -0.033 A 
ATOM     24  C   UNL     1       8.246 -24.748   4.919  0.00  0.00    +0.005 A 
ATOM     25  C   UNL     1       7.992 -25.152   6.233  0.00  0.00    +0.009 A 
BRANCH  23  26
ATOM     26  C   UNL     1       9.290 -25.138   2.562  0.00  0.00    +0.119 C 
BRANCH  26  27
ATOM     27  N   UNL     1       8.381 -25.331   1.957  0.00  0.00    -0.298 NA
ATOM     28  C   UNL     1       8.066 -26.788   1.778  0.00  0.00    +0.085 C 
ATOM     29  C   UNL     1       7.409 -26.886   0.643  0.00  0.00    +0.017 C 
ATOM     30  C   UNL     1       7.682 -25.609  -0.194  0.00  0.00    +0.017 C 
ATOM     31  C   UNL     1       8.457 -24.832   0.533  0.00  0.00    +0.085 C 
ENDBRANCH  26  27
ENDBRANCH  23  26
ENDBRANCH   4  20
TORSDOF 7
