REMARK  Name = 8C7Z_TZX.pdb
REMARK  5 active torsions:
REMARK  status: ('A' for Active; 'I' for Inactive)
REMARK    1  A    between atoms: _2  and  _3
REMARK    2  A    between atoms: _4  and  _5
REMARK    3  A    between atoms: _7  and  _8
REMARK    4  A    between atoms: _11  and  _12
REMARK    5  A    between atoms: _25  and  _26
REMARK                            x       y       z     vdW  Elec       q    Type
REMARK                         _______ _______ _______ _____ _____    ______ ____
ROOT
ATOM      1  C   UNL     1      17.386 -18.796  11.076  0.00  0.00    +0.019 A 
ATOM      2  C   UNL     1      16.417 -19.781  10.611  0.00  0.00    +0.006 A 
ATOM      3  C   UNL     1      16.630 -21.229  10.989  0.00  0.00    +0.041 C 
ATOM      4  C   UNL     1      16.448 -22.359   9.915  0.00  0.00    +0.180 C 
ATOM      5  O   UNL     1      15.716 -22.110   8.690  0.00  0.00    -0.450 OA
ATOM      6  C   UNL     1      14.407 -21.600   8.788  0.00  0.00    +0.147 A 
ATOM      7  C   UNL     1      13.352 -22.458   8.277  0.00  0.00    +0.052 A 
ATOM      8  C   UNL     1      11.977 -22.063   8.309  0.00  0.00    +0.051 A 
ATOM      9  C   UNL     1      11.767 -20.777   8.871  0.00  0.00    +0.015 A 
ATOM     10  C   UNL     1      12.839 -19.976   9.355  0.00  0.00    +0.004 A 
ATOM     11  C   UNL     1      14.198 -20.358   9.324  0.00  0.00    +0.036 A 
ATOM     12  C   UNL     1      15.277 -19.446   9.868  0.00  0.00    +0.022 A 
ATOM     13  C   UNL     1      15.111 -18.074   9.548  0.00  0.00    +0.099 A 
ATOM     14  N   UNL     1      16.000 -17.107   9.946  0.00  0.00    -0.242 NA
ATOM     15  C   UNL     1      17.078 -17.483  10.678  0.00  0.00    +0.099 A 
ENDROOT
BRANCH   1  20
ATOM     16  C   UNL     1      20.011 -18.771  13.961  0.00  0.00    +0.175 A 
ATOM     17  C   UNL     1      21.024 -19.580  13.495  0.00  0.00    +0.206 A 
ATOM     18  C   UNL     1      20.889 -20.154  12.234  0.00  0.00    +0.175 A 
ATOM     19  C   UNL     1      19.723 -19.890  11.465  0.00  0.00    +0.040 A 
ATOM     20  C   UNL     1      18.660 -19.069  11.897  0.00  0.00    +0.008 A 
ATOM     21  C   UNL     1      18.835 -18.506  13.196  0.00  0.00    +0.040 A 
BRANCH  16  23
ATOM     22  C   UNL     1      19.167 -17.170  15.559  0.00  0.00    +0.253 C 
ATOM     23  O   UNL     1      20.105 -18.172  15.230  0.00  0.00    -0.468 OA
ENDBRANCH  16  23
BRANCH  18  24
ATOM     24  O   UNL     1      21.868 -20.985  11.680  0.00  0.00    -0.468 OA
ATOM     25  C   UNL     1      21.446 -22.084  10.891  0.00  0.00    +0.253 C 
ENDBRANCH  18  24
BRANCH  17  26
ATOM     26  O   UNL     1      22.185 -19.831  14.273  0.00  0.00    -0.465 OA
ATOM     27  C   UNL     1      23.371 -19.185  13.895  0.00  0.00    +0.253 C 
ENDBRANCH  17  26
ENDBRANCH   1  20
BRANCH   8  28
ATOM     28  N   UNL     1      10.850 -22.895   7.803  0.00  0.00    -0.304 N 
ATOM     29  C   UNL     1       9.756 -23.460   8.680  0.00  0.00    +0.110 C 
ATOM     30  C   UNL     1       9.223 -24.863   8.288  0.00  0.00    +0.110 C 
ATOM     31  N   UNL     1      10.299 -25.836   8.091  0.00  0.00    -0.214 NA
ATOM     32  C   UNL     1      11.201 -25.376   7.038  0.00  0.00    +0.110 C 
ATOM     33  C   UNL     1      11.046 -23.868   6.647  0.00  0.00    +0.110 C 
ENDBRANCH   8  28
TORSDOF 5
