REMARK  Name = 8POD_7IO.pdb
REMARK  3 active torsions:
REMARK  status: ('A' for Active; 'I' for Inactive)
REMARK    1  A    between atoms: _1  and  _2
REMARK    2  A    between atoms: _5  and  _6
REMARK    3  A    between atoms: _11  and  _12
REMARK                            x       y       z     vdW  Elec       q    Type
REMARK                         _______ _______ _______ _____ _____    ______ ____
ROOT
ATOM      1  C   UNL     1      26.669  -7.525  -9.796  0.00  0.00    +0.022 A 
ATOM      2  C   UNL     1      27.203  -6.314  -9.321  0.00  0.00    +0.099 A 
ATOM      3  N   UNL     1      26.658  -5.674  -8.274  0.00  0.00    -0.241 NA
ATOM      4  C   UNL     1      25.557  -6.177  -7.645  0.00  0.00    +0.119 A 
ATOM      5  C   UNL     1      24.758  -5.735  -6.525  0.00  0.00    +0.058 A 
ATOM      6  C   UNL     1      23.744  -6.668  -6.337  0.00  0.00    +0.181 A 
ATOM      7  O   UNL     1      23.891  -7.624  -7.267  0.00  0.00    -0.449 OA
ATOM      8  C   UNL     1      24.973  -7.356  -8.069  0.00  0.00    +0.163 A 
ATOM      9  C   UNL     1      25.526  -8.073  -9.184  0.00  0.00    +0.041 A 
ENDROOT
BRANCH   5  10
ATOM     10  C   UNL     1      24.960  -4.477  -5.685  0.00  0.00    +0.008 A 
ATOM     11  C   UNL     1      25.012  -3.177  -6.291  0.00  0.00    +0.018 A 
ATOM     12  C   UNL     1      24.893  -3.004  -7.691  0.00  0.00    +0.001 A 
ATOM     13  C   UNL     1      24.954  -1.725  -8.246  0.00  0.00    +0.000 A 
ATOM     14  C   UNL     1      25.130  -0.616  -7.424  0.00  0.00    +0.002 A 
ATOM     15  C   UNL     1      25.248  -0.780  -6.051  0.00  0.00    +0.019 A 
ATOM     16  C   UNL     1      25.186  -2.084  -5.486  0.00  0.00    +0.081 A 
ATOM     17  N   UNL     1      25.304  -2.222  -4.127  0.00  0.00    -0.244 NA
ATOM     18  C   UNL     1      25.256  -3.409  -3.537  0.00  0.00    +0.099 A 
ATOM     19  C   UNL     1      25.081  -4.575  -4.291  0.00  0.00    +0.021 A 
ENDBRANCH   5  10
BRANCH   1  23
ATOM     20  C   UNL     1      28.417  -9.494 -13.274  0.00  0.00    +0.048 A 
ATOM     21  C   UNL     1      28.365  -8.093 -13.193  0.00  0.00    +0.015 A 
ATOM     22  C   UNL     1      27.809  -7.479 -12.072  0.00  0.00    +0.001 A 
ATOM     23  C   UNL     1      27.303  -8.251 -11.030  0.00  0.00    +0.002 A 
ATOM     24  C   UNL     1      27.344  -9.653 -11.110  0.00  0.00    +0.001 A 
ATOM     25  C   UNL     1      27.905 -10.267 -12.236  0.00  0.00    +0.015 A 
BRANCH  20  26
ATOM     26  N   UNL     1      28.993 -10.114 -14.457  0.00  0.00    -0.305 N 
ATOM     27  C   UNL     1      28.201 -11.190 -15.130  0.00  0.00    +0.110 C 
ATOM     28  C   UNL     1      28.947 -11.888 -16.263  0.00  0.00    +0.110 C 
ATOM     29  N   UNL     1      29.395 -10.970 -17.250  0.00  0.00    -0.214 NA
ATOM     30  C   UNL     1      30.198  -9.944 -16.692  0.00  0.00    +0.110 C 
ATOM     31  C   UNL     1      29.513  -9.213 -15.537  0.00  0.00    +0.110 C 
ENDBRANCH  20  26
ENDBRANCH   1  23
TORSDOF 3
