REMARK  Name = 8R7G_YEE.pdb
REMARK  6 active torsions:
REMARK  status: ('A' for Active; 'I' for Inactive)
REMARK    1  A    between atoms: _2  and  _3
REMARK    2  A    between atoms: _5  and  _6
REMARK    3  A    between atoms: _10  and  _11
REMARK    4  A    between atoms: _14  and  _15
REMARK    5  A    between atoms: _18  and  _19
REMARK    6  A    between atoms: _30  and  _31
REMARK                            x       y       z     vdW  Elec       q    Type
REMARK                         _______ _______ _______ _____ _____    ______ ____
ROOT
ATOM      1  C   UNL     1       2.198   2.478 -43.890  0.00  0.00    +0.015 A 
ATOM      2  C   UNL     1       1.025   3.280 -44.016  0.00  0.00    -0.019 A 
ATOM      3  C   UNL     1       0.972   4.700 -43.376  0.00  0.00    +0.031 C 
ATOM      4  C   UNL     1      -0.078   2.748 -44.771  0.00  0.00    +0.015 A 
ATOM      5  C   UNL     1       0.029   1.452 -45.328  0.00  0.00    +0.099 A 
ATOM      6  N   UNL     1       1.137   0.715 -45.196  0.00  0.00    -0.242 NA
ATOM      7  C   UNL     1       2.192   1.197 -44.497  0.00  0.00    +0.099 A 
ENDROOT
BRANCH   1  13
ATOM      8  C   UNL     1       5.686   3.438 -42.833  0.00  0.00    +0.145 A 
ATOM      9  C   UNL     1       5.472   3.721 -41.490  0.00  0.00    +0.118 A 
ATOM     10  C   UNL     1       4.180   3.600 -40.949  0.00  0.00    +0.148 A 
ATOM     11  F   UNL     1       3.936   3.893 -39.628  0.00  0.00    -0.204 F 
ATOM     12  C   UNL     1       3.137   3.166 -41.772  0.00  0.00    +0.030 A 
ATOM     13  C   UNL     1       3.325   2.904 -43.140  0.00  0.00    +0.006 A 
ATOM     14  C   UNL     1       4.615   3.012 -43.670  0.00  0.00    +0.037 A 
BRANCH   9  15
ATOM     15  C   UNL     1       6.632   4.203 -40.563  0.00  0.00    +0.289 C 
ATOM     16  O   UNL     1       7.705   3.684 -40.574  0.00  0.00    -0.266 OA
ATOM     17  N   UNL     1       6.379   5.329 -39.686  0.00  0.00    -0.084 NA
ENDBRANCH   9  15
BRANCH   8  19
ATOM     18  C   UNL     1       7.030   3.638 -44.777  0.00  0.00    +0.252 C 
ATOM     19  O   UNL     1       7.001   3.564 -43.365  0.00  0.00    -0.471 OA
ENDBRANCH   8  19
ENDBRANCH   1  13
BRANCH   4  20
ATOM     20  C   UNL     1      -1.338   3.435 -44.957  0.00  0.00    +0.001 A 
ATOM     21  C   UNL     1      -1.973   3.475 -46.221  0.00  0.00    +0.001 A 
ATOM     22  C   UNL     1      -3.237   4.135 -46.360  0.00  0.00    +0.015 A 
ATOM     23  C   UNL     1      -3.844   4.710 -45.265  0.00  0.00    +0.048 A 
ATOM     24  C   UNL     1      -3.229   4.654 -43.996  0.00  0.00    +0.015 A 
ATOM     25  C   UNL     1      -1.994   3.986 -43.863  0.00  0.00    +0.001 A 
BRANCH  23  26
ATOM     26  N   UNL     1      -5.167   5.409 -45.374  0.00  0.00    -0.305 N 
ATOM     27  C   UNL     1      -5.393   6.593 -44.584  0.00  0.00    +0.108 C 
ATOM     28  C   UNL     1      -6.887   6.861 -44.381  0.00  0.00    +0.094 C 
ATOM     29  N   UNL     1      -7.692   6.737 -45.512  0.00  0.00    -0.271 NA
ATOM     30  C   UNL     1      -7.272   5.948 -46.560  0.00  0.00    +0.094 C 
ATOM     31  C   UNL     1      -5.760   5.685 -46.668  0.00  0.00    +0.108 C 
BRANCH  29  32
ATOM     32  C   UNL     1      -8.280   7.845 -45.876  0.00  0.00    +0.058 C 
ATOM     33  C   UNL     1      -8.929   8.548 -44.685  0.00  0.00    +0.017 C 
ATOM     34  C   UNL     1      -9.362   7.563 -46.980  0.00  0.00    +0.017 C 
ENDBRANCH  29  32
ENDBRANCH  23  26
ENDBRANCH   4  20
TORSDOF 6
