REMARK  Name = 8UWR_XQX.pdb
REMARK  4 active torsions:
REMARK  status: ('A' for Active; 'I' for Inactive)
REMARK    1  A    between atoms: _1  and  _17
REMARK    2  A    between atoms: _10  and  _23
REMARK    3  A    between atoms: _13  and  _20
REMARK    4  A    between atoms: _29  and  _30
REMARK                            x       y       z     vdW  Elec       q    Type
REMARK                         _______ _______ _______ _____ _____    ______ ____
ROOT
ATOM      1  C   UNL     1     -30.908 -20.430 -22.357  0.00  0.00    +0.021 A 
ATOM      2  C   UNL     1     -31.426 -19.166 -22.129  0.00  0.00    +0.100 A 
ATOM      3  N   UNL     1     -30.741 -18.642 -21.120  0.00  0.00    -0.227 N 
ATOM      4  C   UNL     1     -29.818 -19.497 -20.691  0.00  0.00    +0.096 A 
ATOM      5  C   UNL     1     -28.982 -19.155 -19.605  0.00  0.00    +0.067 A 
ATOM      6  C   UNL     1     -29.150 -17.901 -19.059  0.00  0.00    +0.038 A 
ATOM      7  C   UNL     1     -30.138 -17.078 -19.546  0.00  0.00    +0.122 A 
ATOM      8  N   UNL     1     -30.920 -17.504 -20.615  0.00  0.00    -0.163 NA
ATOM      9  C   UNL     1     -29.887 -20.647 -21.450  0.00  0.00    +0.022 A 
ENDROOT
BRANCH   5  10
ATOM     10  N   UNL     1     -27.924 -19.928 -19.085  0.00  0.00    -0.303 N 
ATOM     11  C   UNL     1     -26.950 -20.657 -19.933  0.00  0.00    +0.112 C 
ATOM     12  C   UNL     1     -25.620 -19.900 -19.849  0.00  0.00    +0.115 C 
ATOM     13  N   UNL     1     -25.204 -19.930 -18.436  0.00  0.00    -0.276 N 
ATOM     14  C   UNL     1     -24.188 -20.687 -17.886  0.00  0.00    +0.225 C 
ATOM     15  O   UNL     1     -23.994 -20.635 -16.693  0.00  0.00    -0.275 OA
ATOM     16  C   UNL     1     -26.162 -19.146 -17.630  0.00  0.00    +0.115 C 
ATOM     17  C   UNL     1     -27.488 -19.951 -17.661  0.00  0.00    +0.112 C 
BRANCH  14  18
ATOM     18  C   UNL     1     -23.363 -21.669 -18.709  0.00  0.00    +0.077 C 
ATOM     19  C   UNL     1     -22.532 -22.728 -18.111  0.00  0.00    +0.010 C 
ATOM     20  C   UNL     1     -23.888 -23.037 -18.891  0.00  0.00    +0.010 C 
ENDBRANCH  14  18
ENDBRANCH   5  10
BRANCH   1  24
ATOM     21  C   UNL     1     -32.034 -23.150 -25.544  0.00  0.00    +0.048 A 
ATOM     22  C   UNL     1     -30.877 -23.351 -24.792  0.00  0.00    +0.015 A 
ATOM     23  C   UNL     1     -30.531 -22.479 -23.770  0.00  0.00    +0.001 A 
ATOM     24  C   UNL     1     -31.334 -21.382 -23.433  0.00  0.00    +0.002 A 
ATOM     25  C   UNL     1     -32.481 -21.164 -24.209  0.00  0.00    +0.001 A 
ATOM     26  C   UNL     1     -32.827 -22.050 -25.233  0.00  0.00    +0.015 A 
BRANCH  21  27
ATOM     27  N   UNL     1     -32.420 -24.062 -26.568  0.00  0.00    -0.305 N 
ATOM     28  C   UNL     1     -32.286 -25.535 -26.420  0.00  0.00    +0.110 C 
ATOM     29  C   UNL     1     -31.641 -26.143 -27.673  0.00  0.00    +0.110 C 
ATOM     30  N   UNL     1     -32.570 -25.964 -28.801  0.00  0.00    -0.214 NA
ATOM     31  C   UNL     1     -32.767 -24.526 -29.087  0.00  0.00    +0.110 C 
ATOM     32  C   UNL     1     -33.088 -23.663 -27.835  0.00  0.00    +0.110 C 
ENDBRANCH  21  27
ENDBRANCH   1  24
TORSDOF 4
