REMARK  Name = 9D8E_A1A29.pdb
REMARK  15 active torsions:
REMARK  status: ('A' for Active; 'I' for Inactive)
REMARK    1  A    between atoms: _2  and  _10
REMARK    2  A    between atoms: _3  and  _4
REMARK    3  A    between atoms: _4  and  _5
REMARK    4  A    between atoms: _5  and  _6
REMARK    5  A    between atoms: _6  and  _7
REMARK    6  A    between atoms: _7  and  _8
REMARK    7  A    between atoms: _7  and  _9
REMARK    8  A    between atoms: _15  and  _16
REMARK    9  A    between atoms: _20  and  _21
REMARK   10  A    between atoms: _23  and  _24
REMARK   11  A    between atoms: _24  and  _25
REMARK   12  A    between atoms: _26  and  _27
REMARK   13  A    between atoms: _27  and  _28
REMARK   14  A    between atoms: _29  and  _30
REMARK   15  A    between atoms: _30  and  _31
REMARK                            x       y       z     vdW  Elec       q    Type
REMARK                         _______ _______ _______ _____ _____    ______ ____
ROOT
ATOM      1  C   UNL     1      28.875  -7.010 -30.660  0.00  0.00    +0.039 A 
ATOM      2  C   UNL     1      27.806  -7.289 -31.503  0.00  0.00    +0.041 A 
ATOM      3  C   UNL     1      27.597  -6.403 -32.580  0.00  0.00    +0.070 A 
ATOM      4  N   UNL     1      26.629  -6.404 -33.531  0.00  0.00    -0.320 N 
ATOM      5  C   UNL     1      26.883  -5.337 -34.312  0.00  0.00    +0.142 A 
ATOM      6  N   UNL     1      27.952  -4.673 -33.868  0.00  0.00    -0.228 NA
ATOM      7  C   UNL     1      28.394  -5.337 -32.782  0.00  0.00    +0.090 A 
ATOM      8  C   UNL     1      29.482  -5.047 -31.911  0.00  0.00    +0.030 A 
ATOM      9  C   UNL     1      29.697  -5.910 -30.848  0.00  0.00    +0.015 A 
ENDROOT
BRANCH   5  10
ATOM     10  C   UNL     1      26.128  -4.991 -35.554  0.00  0.00    +0.025 A 
ATOM     11  C   UNL     1      24.750  -5.092 -35.612  0.00  0.00    +0.061 A 
ATOM     12  C   UNL     1      24.099  -4.826 -36.788  0.00  0.00    +0.166 A 
ATOM     13  C   UNL     1      24.815  -4.473 -37.902  0.00  0.00    +0.204 A 
ATOM     14  C   UNL     1      26.191  -4.393 -37.875  0.00  0.00    +0.166 A 
ATOM     15  C   UNL     1      26.852  -4.670 -36.689  0.00  0.00    +0.061 A 
BRANCH  12  16
ATOM     16  O   UNL     1      22.706  -4.882 -36.913  0.00  0.00    -0.491 OA
ATOM     17  C   UNL     1      21.993  -5.162 -35.749  0.00  0.00    +0.277 C 
ENDBRANCH  12  16
BRANCH  13  18
ATOM     18  O   UNL     1      24.153  -4.225 -39.101  0.00  0.00    -0.488 OA
ATOM     19  C   UNL     1      24.031  -2.885 -39.494  0.00  0.00    +0.277 C 
ENDBRANCH  13  18
BRANCH  14  20
ATOM     20  O   UNL     1      26.815  -4.036 -39.050  0.00  0.00    -0.491 OA
ATOM     21  C   UNL     1      28.213  -3.911 -38.995  0.00  0.00    +0.277 C 
ENDBRANCH  14  20
ENDBRANCH   5  10
BRANCH   1  23
ATOM     22  O   UNL     1      28.376  -8.704 -29.084  0.00  0.00    -0.270 OA
ATOM     23  C   UNL     1      29.173  -7.920 -29.476  0.00  0.00    +0.244 C 
ATOM     24  N   UNL     1      30.481  -7.770 -28.886  0.00  0.00    -0.311 N 
ATOM     25  H   UNL     1      31.034  -7.196 -29.209  0.00  0.00    +0.149 HD
BRANCH  24  26
ATOM     26  C   UNL     1      30.864  -8.587 -27.750  0.00  0.00    +0.106 C 
BRANCH  26  27
ATOM     27  C   UNL     1      30.171  -8.053 -26.501  0.00  0.00    +0.034 C 
BRANCH  27  28
ATOM     28  C   UNL     1      29.034  -8.977 -26.070  0.00  0.00    +0.085 C 
BRANCH  28  29
ATOM     29  N   UNL     1      28.089  -8.253 -25.248  0.00  0.00    -0.308 NA
ATOM     30  C   UNL     1      26.754  -8.746 -25.520  0.00  0.00    +0.104 C 
ATOM     31  C   UNL     1      28.423  -8.473 -23.854  0.00  0.00    +0.104 C 
ENDBRANCH  28  29
ENDBRANCH  27  28
ENDBRANCH  26  27
ENDBRANCH  24  26
ENDBRANCH   1  23
BRANCH   4  32
ATOM     32  C   UNL     1      25.614  -7.437 -33.666  0.00  0.00    +0.089 C 
ATOM     33  C   UNL     1      25.806  -8.958 -33.602  0.00  0.00    +0.025 C 
ATOM     34  C   UNL     1      24.634  -9.028 -32.660  0.00  0.00    +0.004 C 
ATOM     35  C   UNL     1      24.768  -7.519 -32.392  0.00  0.00    +0.025 C 
ENDBRANCH   4  32
TORSDOF 10
