REMARK  Name = 9D8F_A1A3C.pdb
REMARK  17 active torsions:
REMARK  status: ('A' for Active; 'I' for Inactive)
REMARK    1  A    between atoms: _2  and  _10
REMARK    2  A    between atoms: _3  and  _4
REMARK    3  A    between atoms: _4  and  _5
REMARK    4  A    between atoms: _5  and  _6
REMARK    5  A    between atoms: _6  and  _7
REMARK    6  A    between atoms: _7  and  _8
REMARK    7  A    between atoms: _7  and  _9
REMARK    8  A    between atoms: _15  and  _16
REMARK    9  A    between atoms: _18  and  _19
REMARK   10  A    between atoms: _20  and  _21
REMARK   11  A    between atoms: _24  and  _25
REMARK   12  A    between atoms: _27  and  _28
REMARK   13  A    between atoms: _28  and  _29
REMARK   14  A    between atoms: _30  and  _31
REMARK   15  A    between atoms: _31  and  _32
REMARK   16  A    between atoms: _33  and  _34
REMARK   17  A    between atoms: _34  and  _35
REMARK                            x       y       z     vdW  Elec       q    Type
REMARK                         _______ _______ _______ _____ _____    ______ ____
ROOT
ATOM      1  C   UNL     1      28.716  -7.084 -30.497  0.00  0.00    +0.039 A 
ATOM      2  C   UNL     1      27.697  -7.306 -31.447  0.00  0.00    +0.041 A 
ATOM      3  C   UNL     1      27.575  -6.333 -32.532  0.00  0.00    +0.070 A 
ATOM      4  N   UNL     1      26.685  -6.308 -33.555  0.00  0.00    -0.320 N 
ATOM      5  C   UNL     1      26.914  -5.183 -34.360  0.00  0.00    +0.142 A 
ATOM      6  N   UNL     1      28.009  -4.500 -33.832  0.00  0.00    -0.228 NA
ATOM      7  C   UNL     1      28.399  -5.254 -32.653  0.00  0.00    +0.090 A 
ATOM      8  C   UNL     1      29.459  -5.013 -31.711  0.00  0.00    +0.030 A 
ATOM      9  C   UNL     1      29.580  -5.985 -30.621  0.00  0.00    +0.015 A 
ENDROOT
BRANCH   5  10
ATOM     10  C   UNL     1      26.153  -4.820 -35.631  0.00  0.00    +0.025 A 
ATOM     11  C   UNL     1      24.711  -4.894 -35.706  0.00  0.00    +0.061 A 
ATOM     12  C   UNL     1      24.074  -4.590 -36.919  0.00  0.00    +0.166 A 
ATOM     13  C   UNL     1      24.792  -4.249 -38.026  0.00  0.00    +0.204 A 
ATOM     14  C   UNL     1      26.166  -4.181 -37.958  0.00  0.00    +0.166 A 
ATOM     15  C   UNL     1      26.868  -4.476 -36.784  0.00  0.00    +0.061 A 
BRANCH  12  16
ATOM     16  O   UNL     1      22.611  -4.661 -36.998  0.00  0.00    -0.491 OA
ATOM     17  C   UNL     1      21.908  -4.770 -35.769  0.00  0.00    +0.277 C 
ENDBRANCH  12  16
BRANCH  13  18
ATOM     18  O   UNL     1      24.100  -3.936 -39.275  0.00  0.00    -0.488 OA
ATOM     19  C   UNL     1      24.098  -2.552 -39.529  0.00  0.00    +0.277 C 
ENDBRANCH  13  18
BRANCH  14  20
ATOM     20  O   UNL     1      26.947  -3.798 -39.109  0.00  0.00    -0.491 OA
ATOM     21  C   UNL     1      28.360  -3.963 -39.001  0.00  0.00    +0.277 C 
ENDBRANCH  14  20
ENDBRANCH   5  10
BRANCH   1  23
ATOM     22  O   UNL     1      27.854  -9.081 -29.468  0.00  0.00    -0.270 OA
ATOM     23  C   UNL     1      28.755  -8.208 -29.396  0.00  0.00    +0.244 C 
ATOM     24  N   UNL     1      29.651  -8.510 -28.297  0.00  0.00    -0.311 N 
ATOM     25  H   UNL     1      29.424  -9.317 -27.821  0.00  0.00    +0.149 HD
BRANCH  24  26
ATOM     26  C   UNL     1      30.826  -7.797 -27.802  0.00  0.00    +0.106 C 
BRANCH  26  27
ATOM     27  C   UNL     1      30.730  -7.709 -26.216  0.00  0.00    +0.034 C 
BRANCH  27  28
ATOM     28  C   UNL     1      29.269  -7.373 -25.708  0.00  0.00    +0.085 C 
BRANCH  28  29
ATOM     29  N   UNL     1      28.454  -8.602 -25.323  0.00  0.00    -0.308 NA
ATOM     30  C   UNL     1      28.561  -8.828 -23.854  0.00  0.00    +0.104 C 
ATOM     31  C   UNL     1      26.985  -8.393 -25.679  0.00  0.00    +0.104 C 
ENDBRANCH  28  29
ENDBRANCH  27  28
ENDBRANCH  26  27
ENDBRANCH  24  26
ENDBRANCH   1  23
BRANCH   4  32
ATOM     32  C   UNL     1      25.596  -7.274 -33.842  0.00  0.00    +0.091 C 
ATOM     33  C   UNL     1      25.962  -8.780 -33.704  0.00  0.00    +0.038 C 
ATOM     34  C   UNL     1      24.781  -8.989 -32.700  0.00  0.00    +0.079 C 
ATOM     35  C   UNL     1      24.603  -7.455 -32.651  0.00  0.00    +0.038 C 
BRANCH  34  36
ATOM     36  C   UNL     1      23.608  -9.755 -33.236  0.00  0.00    +0.216 C 
ATOM     37  O   UNL     1      23.240 -10.807 -32.630  0.00  0.00    -0.276 OA
ATOM     38  N   UNL     1      22.791  -9.463 -34.405  0.00  0.00    -0.318 N 
ATOM     39  H   UNL     1      22.077 -10.090 -34.549  0.00  0.00    +0.148 HD
ATOM     40  C   UNL     1      22.980  -8.329 -35.331  0.00  0.00    +0.128 C 
ENDBRANCH  34  36
ENDBRANCH   4  32
TORSDOF 11
