MODEL 1
REMARK VINA RESULT:      -7.1      0.000      0.000
REMARK  Name = 4C02_TAK.pdb
REMARK  3 active torsions:
REMARK  status: ('A' for Active; 'I' for Inactive)
REMARK    1  A    between atoms: _1  and  _7
REMARK    2  A    between atoms: _12  and  _13
REMARK    3  A    between atoms: _18  and  _19
REMARK                            x       y       z     vdW  Elec       q    Type
REMARK                         _______ _______ _______ _____ _____    ______ ____
ROOT
ATOM      1  C   UNL     1       5.991  21.576  14.515  0.00  0.00    +0.038 A 
ATOM      2  C   UNL     1       5.880  20.987  15.787  0.00  0.00    +0.102 A 
ATOM      3  N   UNL     1       6.065  21.700  16.920  0.00  0.00    -0.225 NA
ATOM      4  C   UNL     1       6.403  23.047  16.858  0.00  0.00    +0.165 A 
ATOM      5  C   UNL     1       6.642  24.009  17.876  0.00  0.00    +0.057 A 
ATOM      6  C   UNL     1       6.933  25.175  17.172  0.00  0.00    +0.124 A 
ATOM      7  N   UNL     1       6.871  24.947  15.831  0.00  0.00    -0.162 NA
ATOM      8  N   UNL     1       6.538  23.619  15.684  0.00  0.00    -0.211 N 
ATOM      9  C   UNL     1       6.326  22.930  14.492  0.00  0.00    +0.104 A 
ENDROOT
BRANCH   1  13
ATOM     10  C   UNL     1       5.320  19.394  10.872  0.00  0.00    +0.139 A 
ATOM     11  C   UNL     1       4.782  20.639  11.056  0.00  0.00    +0.037 A 
ATOM     12  C   UNL     1       4.990  21.357  12.244  0.00  0.00    +0.003 A 
ATOM     13  C   UNL     1       5.753  20.824  13.288  0.00  0.00    +0.003 A 
ATOM     14  C   UNL     1       6.330  19.571  13.092  0.00  0.00    +0.003 A 
ATOM     15  C   UNL     1       6.117  18.861  11.913  0.00  0.00    +0.037 A 
BRANCH  10  16
ATOM     16  O   UNL     1       5.062  18.707   9.629  0.00  0.00    -0.471 OA
ATOM     17  C   UNL     1       5.184  19.421   8.421  0.00  0.00    +0.252 C 
ENDBRANCH  10  16
ENDBRANCH   1  13
BRANCH   5  18
ATOM     18  C   UNL     1       6.625  23.896  19.270  0.00  0.00    +0.008 A 
ATOM     19  C   UNL     1       7.301  22.917  19.971  0.00  0.00    +0.021 A 
ATOM     20  C   UNL     1       7.239  22.884  21.357  0.00  0.00    +0.099 A 
ATOM     21  N   UNL     1       6.541  23.812  22.024  0.00  0.00    -0.242 NA
ATOM     22  C   UNL     1       5.885  24.788  21.395  0.00  0.00    +0.099 A 
ATOM     23  C   UNL     1       5.926  24.838  20.011  0.00  0.00    +0.021 A 
ENDBRANCH   5  18
TORSDOF 3
ENDMDL
MODEL 2
REMARK VINA RESULT:      -7.0      3.643      8.798
REMARK  Name = 4C02_TAK.pdb
REMARK  3 active torsions:
REMARK  status: ('A' for Active; 'I' for Inactive)
REMARK    1  A    between atoms: _1  and  _7
REMARK    2  A    between atoms: _12  and  _13
REMARK    3  A    between atoms: _18  and  _19
REMARK                            x       y       z     vdW  Elec       q    Type
REMARK                         _______ _______ _______ _____ _____    ______ ____
ROOT
ATOM      1  C   UNL     1       6.665  21.408  16.619  0.00  0.00    +0.038 A 
ATOM      2  C   UNL     1       6.311  22.041  15.414  0.00  0.00    +0.102 A 
ATOM      3  N   UNL     1       6.222  21.360  14.250  0.00  0.00    -0.225 NA
ATOM      4  C   UNL     1       6.511  20.000  14.206  0.00  0.00    +0.165 A 
ATOM      5  C   UNL     1       6.489  19.064  13.137  0.00  0.00    +0.057 A 
ATOM      6  C   UNL     1       6.876  17.867  13.735  0.00  0.00    +0.124 A 
ATOM      7  N   UNL     1       7.109  18.054  15.064  0.00  0.00    -0.162 NA
ATOM      8  N   UNL     1       6.869  19.386  15.310  0.00  0.00    -0.211 N 
ATOM      9  C   UNL     1       6.942  20.043  16.537  0.00  0.00    +0.104 A 
ENDROOT
BRANCH   1  13
ATOM     10  C   UNL     1       6.786  23.516  20.364  0.00  0.00    +0.139 A 
ATOM     11  C   UNL     1       6.059  23.997  19.309  0.00  0.00    +0.037 A 
ATOM     12  C   UNL     1       6.017  23.319  18.080  0.00  0.00    +0.003 A 
ATOM     13  C   UNL     1       6.723  22.127  17.886  0.00  0.00    +0.003 A 
ATOM     14  C   UNL     1       7.439  21.617  18.967  0.00  0.00    +0.003 A 
ATOM     15  C   UNL     1       7.479  22.295  20.183  0.00  0.00    +0.037 A 
BRANCH  10  16
ATOM     16  O   UNL     1       6.791  24.265  21.597  0.00  0.00    -0.471 OA
ATOM     17  C   UNL     1       5.722  25.142  21.862  0.00  0.00    +0.252 C 
ENDBRANCH  10  16
ENDBRANCH   1  13
BRANCH   5  18
ATOM     18  C   UNL     1       6.182  19.223  11.783  0.00  0.00    +0.008 A 
ATOM     19  C   UNL     1       6.792  20.148  10.958  0.00  0.00    +0.021 A 
ATOM     20  C   UNL     1       6.434  20.232   9.620  0.00  0.00    +0.099 A 
ATOM     21  N   UNL     1       5.511  19.403   9.115  0.00  0.00    -0.242 NA
ATOM     22  C   UNL     1       4.906  18.481   9.865  0.00  0.00    +0.099 A 
ATOM     23  C   UNL     1       5.241  18.382  11.206  0.00  0.00    +0.021 A 
ENDBRANCH   5  18
TORSDOF 3
ENDMDL
MODEL 3
REMARK VINA RESULT:      -6.8      1.588      2.597
REMARK  Name = 4C02_TAK.pdb
REMARK  3 active torsions:
REMARK  status: ('A' for Active; 'I' for Inactive)
REMARK    1  A    between atoms: _1  and  _7
REMARK    2  A    between atoms: _12  and  _13
REMARK    3  A    between atoms: _18  and  _19
REMARK                            x       y       z     vdW  Elec       q    Type
REMARK                         _______ _______ _______ _____ _____    ______ ____
ROOT
ATOM      1  C   UNL     1       6.251  20.820  13.511  0.00  0.00    +0.038 A 
ATOM      2  C   UNL     1       6.121  22.134  13.994  0.00  0.00    +0.102 A 
ATOM      3  N   UNL     1       6.174  22.416  15.315  0.00  0.00    -0.225 NA
ATOM      4  C   UNL     1       6.333  21.397  16.247  0.00  0.00    +0.165 A 
ATOM      5  C   UNL     1       6.426  21.419  17.665  0.00  0.00    +0.057 A 
ATOM      6  C   UNL     1       6.579  20.079  18.010  0.00  0.00    +0.124 A 
ATOM      7  N   UNL     1       6.586  19.299  16.894  0.00  0.00    -0.162 NA
ATOM      8  N   UNL     1       6.433  20.156  15.828  0.00  0.00    -0.211 N 
ATOM      9  C   UNL     1       6.415  19.825  14.475  0.00  0.00    +0.104 A 
ENDROOT
BRANCH   1  13
ATOM     10  C   UNL     1       6.238  19.870   9.318  0.00  0.00    +0.139 A 
ATOM     11  C   UNL     1       7.363  20.358   9.925  0.00  0.00    +0.037 A 
ATOM     12  C   UNL     1       7.376  20.677  11.292  0.00  0.00    +0.003 A 
ATOM     13  C   UNL     1       6.236  20.512  12.086  0.00  0.00    +0.003 A 
ATOM     14  C   UNL     1       5.098  19.984  11.479  0.00  0.00    +0.003 A 
ATOM     15  C   UNL     1       5.089  19.673  10.121  0.00  0.00    +0.037 A 
BRANCH  10  16
ATOM     16  O   UNL     1       6.290  19.568   7.908  0.00  0.00    -0.471 OA
ATOM     17  C   UNL     1       5.246  18.818   7.334  0.00  0.00    +0.252 C 
ENDBRANCH  10  16
ENDBRANCH   1  13
BRANCH   5  18
ATOM     18  C   UNL     1       6.372  22.481  18.572  0.00  0.00    +0.008 A 
ATOM     19  C   UNL     1       7.087  22.521  19.754  0.00  0.00    +0.021 A 
ATOM     20  C   UNL     1       6.983  23.621  20.594  0.00  0.00    +0.099 A 
ATOM     21  N   UNL     1       6.206  24.658  20.256  0.00  0.00    -0.242 NA
ATOM     22  C   UNL     1       5.510  24.676  19.118  0.00  0.00    +0.099 A 
ATOM     23  C   UNL     1       5.591  23.586  18.266  0.00  0.00    +0.021 A 
ENDBRANCH   5  18
TORSDOF 3
ENDMDL
MODEL 4
REMARK VINA RESULT:      -6.8      6.871     10.164
REMARK  Name = 4C02_TAK.pdb
REMARK  3 active torsions:
REMARK  status: ('A' for Active; 'I' for Inactive)
REMARK    1  A    between atoms: _1  and  _7
REMARK    2  A    between atoms: _12  and  _13
REMARK    3  A    between atoms: _18  and  _19
REMARK                            x       y       z     vdW  Elec       q    Type
REMARK                         _______ _______ _______ _____ _____    ______ ____
ROOT
ATOM      1  C   UNL     1      12.815  22.689  20.977  0.00  0.00    +0.038 A 
ATOM      2  C   UNL     1      12.109  23.621  20.196  0.00  0.00    +0.102 A 
ATOM      3  N   UNL     1      10.761  23.608  20.116  0.00  0.00    -0.225 NA
ATOM      4  C   UNL     1      10.024  22.640  20.789  0.00  0.00    +0.165 A 
ATOM      5  C   UNL     1       8.625  22.408  20.878  0.00  0.00    +0.057 A 
ATOM      6  C   UNL     1       8.523  21.292  21.703  0.00  0.00    +0.124 A 
ATOM      7  N   UNL     1       9.759  20.876  22.094  0.00  0.00    -0.162 NA
ATOM      8  N   UNL     1      10.656  21.740  21.507  0.00  0.00    -0.211 N 
ATOM      9  C   UNL     1      12.043  21.737  21.643  0.00  0.00    +0.104 A 
ENDROOT
BRANCH   1  13
ATOM     10  C   UNL     1      17.100  22.810  21.301  0.00  0.00    +0.139 A 
ATOM     11  C   UNL     1      16.487  22.000  20.384  0.00  0.00    +0.037 A 
ATOM     12  C   UNL     1      15.088  21.949  20.275  0.00  0.00    +0.003 A 
ATOM     13  C   UNL     1      14.267  22.722  21.103  0.00  0.00    +0.003 A 
ATOM     14  C   UNL     1      14.889  23.572  22.016  0.00  0.00    +0.003 A 
ATOM     15  C   UNL     1      16.277  23.616  22.122  0.00  0.00    +0.037 A 
BRANCH  10  16
ATOM     16  O   UNL     1      18.542  22.810  21.365  0.00  0.00    -0.471 OA
ATOM     17  C   UNL     1      19.264  22.080  20.402  0.00  0.00    +0.252 C 
ENDBRANCH  10  16
ENDBRANCH   1  13
BRANCH   5  18
ATOM     18  C   UNL     1       7.544  23.080  20.298  0.00  0.00    +0.008 A 
ATOM     19  C   UNL     1       7.072  22.825  19.025  0.00  0.00    +0.021 A 
ATOM     20  C   UNL     1       5.985  23.532  18.530  0.00  0.00    +0.099 A 
ATOM     21  N   UNL     1       5.374  24.449  19.290  0.00  0.00    -0.242 NA
ATOM     22  C   UNL     1       5.780  24.720  20.532  0.00  0.00    +0.099 A 
ATOM     23  C   UNL     1       6.868  24.033  21.046  0.00  0.00    +0.021 A 
ENDBRANCH   5  18
TORSDOF 3
ENDMDL
MODEL 5
REMARK VINA RESULT:      -6.7      3.679      8.533
REMARK  Name = 4C02_TAK.pdb
REMARK  3 active torsions:
REMARK  status: ('A' for Active; 'I' for Inactive)
REMARK    1  A    between atoms: _1  and  _7
REMARK    2  A    between atoms: _12  and  _13
REMARK    3  A    between atoms: _18  and  _19
REMARK                            x       y       z     vdW  Elec       q    Type
REMARK                         _______ _______ _______ _____ _____    ______ ____
ROOT
ATOM      1  C   UNL     1       6.364  23.279  15.776  0.00  0.00    +0.038 A 
ATOM      2  C   UNL     1       5.999  22.038  15.224  0.00  0.00    +0.102 A 
ATOM      3  N   UNL     1       5.977  21.831  13.889  0.00  0.00    -0.225 NA
ATOM      4  C   UNL     1       6.289  22.863  13.010  0.00  0.00    +0.165 A 
ATOM      5  C   UNL     1       6.348  22.911  11.591  0.00  0.00    +0.057 A 
ATOM      6  C   UNL     1       6.723  24.224  11.318  0.00  0.00    +0.124 A 
ATOM      7  N   UNL     1       6.886  24.922  12.475  0.00  0.00    -0.162 NA
ATOM      8  N   UNL     1       6.610  24.040  13.495  0.00  0.00    -0.211 N 
ATOM      9  C   UNL     1       6.677  24.288  14.865  0.00  0.00    +0.104 A 
ENDROOT
BRANCH   1  13
ATOM     10  C   UNL     1       6.510  23.925  20.024  0.00  0.00    +0.139 A 
ATOM     11  C   UNL     1       6.063  24.904  19.178  0.00  0.00    +0.037 A 
ATOM     12  C   UNL     1       6.017  24.705  17.789  0.00  0.00    +0.003 A 
ATOM     13  C   UNL     1       6.431  23.498  17.216  0.00  0.00    +0.003 A 
ATOM     14  C   UNL     1       6.857  22.488  18.076  0.00  0.00    +0.003 A 
ATOM     15  C   UNL     1       6.904  22.692  19.453  0.00  0.00    +0.037 A 
BRANCH  10  16
ATOM     16  O   UNL     1       6.537  24.198  21.441  0.00  0.00    -0.471 OA
ATOM     17  C   UNL     1       7.529  23.585  22.231  0.00  0.00    +0.252 C 
ENDBRANCH  10  16
ENDBRANCH   1  13
BRANCH   5  18
ATOM     18  C   UNL     1       6.094  21.931  10.628  0.00  0.00    +0.008 A 
ATOM     19  C   UNL     1       6.959  20.894  10.336  0.00  0.00    +0.021 A 
ATOM     20  C   UNL     1       6.623  19.956   9.371  0.00  0.00    +0.099 A 
ATOM     21  N   UNL     1       5.450  20.037   8.730  0.00  0.00    -0.242 NA
ATOM     22  C   UNL     1       4.572  21.009   8.987  0.00  0.00    +0.099 A 
ATOM     23  C   UNL     1       4.888  21.962   9.942  0.00  0.00    +0.021 A 
ENDBRANCH   5  18
TORSDOF 3
ENDMDL
MODEL 6
REMARK VINA RESULT:      -6.7      2.767      4.519
REMARK  Name = 4C02_TAK.pdb
REMARK  3 active torsions:
REMARK  status: ('A' for Active; 'I' for Inactive)
REMARK    1  A    between atoms: _1  and  _7
REMARK    2  A    between atoms: _12  and  _13
REMARK    3  A    between atoms: _18  and  _19
REMARK                            x       y       z     vdW  Elec       q    Type
REMARK                         _______ _______ _______ _____ _____    ______ ____
ROOT
ATOM      1  C   UNL     1       6.904  23.004  17.317  0.00  0.00    +0.038 A 
ATOM      2  C   UNL     1       8.151  22.379  17.494  0.00  0.00    +0.102 A 
ATOM      3  N   UNL     1       8.725  22.266  18.712  0.00  0.00    -0.225 NA
ATOM      4  C   UNL     1       8.103  22.799  19.836  0.00  0.00    +0.165 A 
ATOM      5  C   UNL     1       8.478  22.813  21.207  0.00  0.00    +0.057 A 
ATOM      6  C   UNL     1       7.437  23.495  21.831  0.00  0.00    +0.124 A 
ATOM      7  N   UNL     1       6.497  23.864  20.918  0.00  0.00    -0.162 NA
ATOM      8  N   UNL     1       6.950  23.411  19.699  0.00  0.00    -0.211 N 
ATOM      9  C   UNL     1       6.308  23.522  18.467  0.00  0.00    +0.104 A 
ENDROOT
BRANCH   1  13
ATOM     10  C   UNL     1       4.955  23.258  13.493  0.00  0.00    +0.139 A 
ATOM     11  C   UNL     1       5.105  22.055  14.128  0.00  0.00    +0.037 A 
ATOM     12  C   UNL     1       5.745  21.961  15.374  0.00  0.00    +0.003 A 
ATOM     13  C   UNL     1       6.259  23.094  16.012  0.00  0.00    +0.003 A 
ATOM     14  C   UNL     1       6.080  24.325  15.385  0.00  0.00    +0.003 A 
ATOM     15  C   UNL     1       5.447  24.413  14.147  0.00  0.00    +0.037 A 
BRANCH  10  16
ATOM     16  O   UNL     1       4.293  23.284  12.211  0.00  0.00    -0.471 OA
ATOM     17  C   UNL     1       4.364  22.143  11.388  0.00  0.00    +0.252 C 
ENDBRANCH  10  16
ENDBRANCH   1  13
BRANCH   5  18
ATOM     18  C   UNL     1       9.607  22.302  21.855  0.00  0.00    +0.008 A 
ATOM     19  C   UNL     1       9.857  20.953  22.019  0.00  0.00    +0.021 A 
ATOM     20  C   UNL     1      11.010  20.532  22.667  0.00  0.00    +0.099 A 
ATOM     21  N   UNL     1      11.896  21.428  23.119  0.00  0.00    -0.242 NA
ATOM     22  C   UNL     1      11.709  22.741  22.971  0.00  0.00    +0.099 A 
ATOM     23  C   UNL     1      10.563  23.187  22.333  0.00  0.00    +0.021 A 
ENDBRANCH   5  18
TORSDOF 3
ENDMDL
MODEL 7
REMARK VINA RESULT:      -6.6      4.126      5.474
REMARK  Name = 4C02_TAK.pdb
REMARK  3 active torsions:
REMARK  status: ('A' for Active; 'I' for Inactive)
REMARK    1  A    between atoms: _1  and  _7
REMARK    2  A    between atoms: _12  and  _13
REMARK    3  A    between atoms: _18  and  _19
REMARK                            x       y       z     vdW  Elec       q    Type
REMARK                         _______ _______ _______ _____ _____    ______ ____
ROOT
ATOM      1  C   UNL     1       6.485  19.394  16.078  0.00  0.00    +0.038 A 
ATOM      2  C   UNL     1       6.543  20.038  17.326  0.00  0.00    +0.102 A 
ATOM      3  N   UNL     1       6.832  19.365  18.462  0.00  0.00    -0.225 NA
ATOM      4  C   UNL     1       7.054  17.993  18.431  0.00  0.00    +0.165 A 
ATOM      5  C   UNL     1       7.376  17.064  19.458  0.00  0.00    +0.057 A 
ATOM      6  C   UNL     1       7.471  15.847  18.788  0.00  0.00    +0.124 A 
ATOM      7  N   UNL     1       7.232  16.017  17.458  0.00  0.00    -0.162 NA
ATOM      8  N   UNL     1       6.981  17.359  17.284  0.00  0.00    -0.211 N 
ATOM      9  C   UNL     1       6.718  18.019  16.085  0.00  0.00    +0.104 A 
ENDROOT
BRANCH   1  13
ATOM     10  C   UNL     1       5.650  21.498  12.423  0.00  0.00    +0.139 A 
ATOM     11  C   UNL     1       6.240  20.263  12.405  0.00  0.00    +0.037 A 
ATOM     12  C   UNL     1       6.522  19.571  13.593  0.00  0.00    +0.003 A 
ATOM     13  C   UNL     1       6.215  20.120  14.842  0.00  0.00    +0.003 A 
ATOM     14  C   UNL     1       5.585  21.363  14.864  0.00  0.00    +0.003 A 
ATOM     15  C   UNL     1       5.311  22.047  13.682  0.00  0.00    +0.037 A 
BRANCH  10  16
ATOM     16  O   UNL     1       5.394  22.158  11.165  0.00  0.00    -0.471 OA
ATOM     17  C   UNL     1       4.179  21.905  10.501  0.00  0.00    +0.252 C 
ENDBRANCH  10  16
ENDBRANCH   1  13
BRANCH   5  18
ATOM     18  C   UNL     1       7.557  17.241  20.832  0.00  0.00    +0.008 A 
ATOM     19  C   UNL     1       6.797  16.608  21.797  0.00  0.00    +0.021 A 
ATOM     20  C   UNL     1       7.052  16.832  23.143  0.00  0.00    +0.099 A 
ATOM     21  N   UNL     1       8.048  17.645  23.515  0.00  0.00    -0.242 NA
ATOM     22  C   UNL     1       8.822  18.266  22.623  0.00  0.00    +0.099 A 
ATOM     23  C   UNL     1       8.583  18.064  21.273  0.00  0.00    +0.021 A 
ENDBRANCH   5  18
TORSDOF 3
ENDMDL
MODEL 8
REMARK VINA RESULT:      -6.6      4.494      8.820
REMARK  Name = 4C02_TAK.pdb
REMARK  3 active torsions:
REMARK  status: ('A' for Active; 'I' for Inactive)
REMARK    1  A    between atoms: _1  and  _7
REMARK    2  A    between atoms: _12  and  _13
REMARK    3  A    between atoms: _18  and  _19
REMARK                            x       y       z     vdW  Elec       q    Type
REMARK                         _______ _______ _______ _____ _____    ______ ____
ROOT
ATOM      1  C   UNL     1       9.201  22.550  18.468  0.00  0.00    +0.038 A 
ATOM      2  C   UNL     1       9.237  23.020  17.143  0.00  0.00    +0.102 A 
ATOM      3  N   UNL     1       8.293  22.677  16.239  0.00  0.00    -0.225 NA
ATOM      4  C   UNL     1       7.261  21.813  16.591  0.00  0.00    +0.165 A 
ATOM      5  C   UNL     1       6.159  21.306  15.851  0.00  0.00    +0.057 A 
ATOM      6  C   UNL     1       5.490  20.494  16.764  0.00  0.00    +0.124 A 
ATOM      7  N   UNL     1       6.128  20.507  17.967  0.00  0.00    -0.162 NA
ATOM      8  N   UNL     1       7.216  21.337  17.814  0.00  0.00    -0.211 N 
ATOM      9  C   UNL     1       8.150  21.690  18.786  0.00  0.00    +0.104 A 
ENDROOT
BRANCH   1  13
ATOM     10  C   UNL     1      12.117  23.774  21.381  0.00  0.00    +0.139 A 
ATOM     11  C   UNL     1      12.380  23.865  20.040  0.00  0.00    +0.037 A 
ATOM     12  C   UNL     1      11.437  23.463  19.081  0.00  0.00    +0.003 A 
ATOM     13  C   UNL     1      10.193  22.948  19.460  0.00  0.00    +0.003 A 
ATOM     14  C   UNL     1       9.908  22.883  20.823  0.00  0.00    +0.003 A 
ATOM     15  C   UNL     1      10.849  23.281  21.770  0.00  0.00    +0.037 A 
BRANCH  10  16
ATOM     16  O   UNL     1      13.132  24.199  22.313  0.00  0.00    -0.471 OA
ATOM     17  C   UNL     1      14.480  23.909  22.028  0.00  0.00    +0.252 C 
ENDBRANCH  10  16
ENDBRANCH   1  13
BRANCH   5  18
ATOM     18  C   UNL     1       5.772  21.510  14.523  0.00  0.00    +0.008 A 
ATOM     19  C   UNL     1       6.110  20.663  13.485  0.00  0.00    +0.021 A 
ATOM     20  C   UNL     1       5.674  20.934  12.195  0.00  0.00    +0.099 A 
ATOM     21  N   UNL     1       4.908  22.005  11.953  0.00  0.00    -0.242 NA
ATOM     22  C   UNL     1       4.540  22.844  12.923  0.00  0.00    +0.099 A 
ATOM     23  C   UNL     1       4.968  22.598  14.218  0.00  0.00    +0.021 A 
ENDBRANCH   5  18
TORSDOF 3
ENDMDL
MODEL 9
REMARK VINA RESULT:      -6.4      1.518      2.098
REMARK  Name = 4C02_TAK.pdb
REMARK  3 active torsions:
REMARK  status: ('A' for Active; 'I' for Inactive)
REMARK    1  A    between atoms: _1  and  _7
REMARK    2  A    between atoms: _12  and  _13
REMARK    3  A    between atoms: _18  and  _19
REMARK                            x       y       z     vdW  Elec       q    Type
REMARK                         _______ _______ _______ _____ _____    ______ ____
ROOT
ATOM      1  C   UNL     1       6.376  21.969  12.705  0.00  0.00    +0.038 A 
ATOM      2  C   UNL     1       5.793  21.532  13.907  0.00  0.00    +0.102 A 
ATOM      3  N   UNL     1       5.974  22.196  15.070  0.00  0.00    -0.225 NA
ATOM      4  C   UNL     1       6.778  23.330  15.116  0.00  0.00    +0.165 A 
ATOM      5  C   UNL     1       7.122  24.201  16.185  0.00  0.00    +0.057 A 
ATOM      6  C   UNL     1       7.955  25.145  15.589  0.00  0.00    +0.124 A 
ATOM      7  N   UNL     1       8.103  24.878  14.263  0.00  0.00    -0.162 NA
ATOM      8  N   UNL     1       7.356  23.748  14.014  0.00  0.00    -0.211 N 
ATOM      9  C   UNL     1       7.171  23.113  12.788  0.00  0.00    +0.104 A 
ENDROOT
BRANCH   1  13
ATOM     10  C   UNL     1       5.729  19.899   8.992  0.00  0.00    +0.139 A 
ATOM     11  C   UNL     1       6.991  20.061   9.497  0.00  0.00    +0.037 A 
ATOM     12  C   UNL     1       7.214  20.740  10.706  0.00  0.00    +0.003 A 
ATOM     13  C   UNL     1       6.152  21.283  11.438  0.00  0.00    +0.003 A 
ATOM     14  C   UNL     1       4.863  21.092  10.944  0.00  0.00    +0.003 A 
ATOM     15  C   UNL     1       4.649  20.421   9.743  0.00  0.00    +0.037 A 
BRANCH  10  16
ATOM     16  O   UNL     1       5.572  19.196   7.742  0.00  0.00    -0.471 OA
ATOM     17  C   UNL     1       5.030  17.897   7.758  0.00  0.00    +0.252 C 
ENDBRANCH  10  16
ENDBRANCH   1  13
BRANCH   5  18
ATOM     18  C   UNL     1       6.769  24.180  17.537  0.00  0.00    +0.008 A 
ATOM     19  C   UNL     1       7.283  23.284  18.454  0.00  0.00    +0.021 A 
ATOM     20  C   UNL     1       6.886  23.341  19.783  0.00  0.00    +0.099 A 
ATOM     21  N   UNL     1       6.017  24.276  20.188  0.00  0.00    -0.242 NA
ATOM     22  C   UNL     1       5.505  25.175  19.346  0.00  0.00    +0.099 A 
ATOM     23  C   UNL     1       5.882  25.135  18.013  0.00  0.00    +0.021 A 
ENDBRANCH   5  18
TORSDOF 3
ENDMDL
