MODEL 1
REMARK VINA RESULT:      -7.7      0.000      0.000
REMARK  Name = 3MTF_A3F.pdb
REMARK  5 active torsions:
REMARK  status: ('A' for Active; 'I' for Inactive)
REMARK    1  A    between atoms: _14  and  _15
REMARK    2  A    between atoms: _16  and  _19
REMARK    3  A    between atoms: _17  and  _24
REMARK    4  A    between atoms: _18  and  _25
REMARK    5  A    between atoms: _20  and  _26
REMARK                            x       y       z     vdW  Elec       q    Type
REMARK                         _______ _______ _______ _____ _____    ______ ____
ROOT
ATOM      1  C   UNL     1       6.346  21.957  15.686  0.00  0.00    +0.035 A 
ATOM      2  C   UNL     1       6.159  23.027  14.837  0.00  0.00    +0.170 A 
ATOM      3  N   UNL     1       6.033  24.270  15.325  0.00  0.00    -0.226 NA
ATOM      4  C   UNL     1       6.085  24.561  16.597  0.00  0.00    +0.100 A 
ATOM      5  C   UNL     1       6.358  23.554  17.512  0.00  0.00    +0.019 A 
ATOM      6  N   UNL     1       5.988  22.790  13.542  0.00  0.00    -0.107 NA
ATOM      7  C   UNL     1       6.442  22.237  17.050  0.00  0.00    +0.004 A 
ENDROOT
BRANCH   5   8
ATOM      8  C   UNL     1       6.388  23.859  18.887  0.00  0.00    +0.005 A 
ATOM      9  C   UNL     1       7.009  22.964  19.739  0.00  0.00    +0.042 A 
ATOM     10  C   UNL     1       7.021  23.174  21.108  0.00  0.00    +0.196 A 
ATOM     11  O   UNL     1       7.635  22.255  21.893  0.00  0.00    -0.287 OA
ATOM     12  C   UNL     1       6.384  24.272  21.674  0.00  0.00    +0.042 A 
ATOM     13  C   UNL     1       5.723  25.152  20.821  0.00  0.00    +0.003 A 
ATOM     14  C   UNL     1       5.702  24.940  19.434  0.00  0.00    +0.000 A 
ENDBRANCH   5   8
BRANCH   1  19
ATOM     15  C   UNL     1       6.563  19.043  13.346  0.00  0.00    +0.175 A 
ATOM     16  C   UNL     1       6.860  18.030  14.246  0.00  0.00    +0.206 A 
ATOM     17  C   UNL     1       6.941  18.291  15.612  0.00  0.00    +0.175 A 
ATOM     18  C   UNL     1       6.768  19.584  16.087  0.00  0.00    +0.040 A 
ATOM     19  C   UNL     1       6.465  20.624  15.211  0.00  0.00    +0.009 A 
ATOM     20  C   UNL     1       6.379  20.337  13.845  0.00  0.00    +0.040 A 
BRANCH  15  22
ATOM     21  C   UNL     1       5.187  18.955  11.280  0.00  0.00    +0.253 C 
ATOM     22  O   UNL     1       6.457  18.731  11.989  0.00  0.00    -0.468 OA
ENDBRANCH  15  22
BRANCH  16  23
ATOM     23  O   UNL     1       7.071  16.754  13.822  0.00  0.00    -0.465 OA
ATOM     24  C   UNL     1       5.849  16.055  13.659  0.00  0.00    +0.253 C 
ENDBRANCH  16  23
BRANCH  17  25
ATOM     25  O   UNL     1       7.197  17.231  16.423  0.00  0.00    -0.468 OA
ATOM     26  C   UNL     1       6.925  17.424  17.818  0.00  0.00    +0.253 C 
ENDBRANCH  17  25
ENDBRANCH   1  19
TORSDOF 5
ENDMDL
MODEL 2
REMARK VINA RESULT:      -7.6      9.824     12.337
REMARK  Name = 3MTF_A3F.pdb
REMARK  5 active torsions:
REMARK  status: ('A' for Active; 'I' for Inactive)
REMARK    1  A    between atoms: _14  and  _15
REMARK    2  A    between atoms: _16  and  _19
REMARK    3  A    between atoms: _17  and  _24
REMARK    4  A    between atoms: _18  and  _25
REMARK    5  A    between atoms: _20  and  _26
REMARK                            x       y       z     vdW  Elec       q    Type
REMARK                         _______ _______ _______ _____ _____    ______ ____
ROOT
ATOM      1  C   UNL     1      16.082  22.390  16.790  0.00  0.00    +0.035 A 
ATOM      2  C   UNL     1      15.673  23.320  15.857  0.00  0.00    +0.170 A 
ATOM      3  N   UNL     1      16.080  23.231  14.583  0.00  0.00    -0.226 NA
ATOM      4  C   UNL     1      16.861  22.286  14.132  0.00  0.00    +0.100 A 
ATOM      5  C   UNL     1      17.248  21.262  14.986  0.00  0.00    +0.019 A 
ATOM      6  N   UNL     1      14.966  24.366  16.268  0.00  0.00    -0.107 NA
ATOM      7  C   UNL     1      16.889  21.347  16.334  0.00  0.00    +0.004 A 
ENDROOT
BRANCH   5   8
ATOM      8  C   UNL     1      18.113  20.257  14.511  0.00  0.00    +0.005 A 
ATOM      9  C   UNL     1      17.924  19.791  13.222  0.00  0.00    +0.042 A 
ATOM     10  C   UNL     1      18.700  18.762  12.715  0.00  0.00    +0.196 A 
ATOM     11  O   UNL     1      18.460  18.341  11.449  0.00  0.00    -0.287 OA
ATOM     12  C   UNL     1      19.672  18.143  13.492  0.00  0.00    +0.042 A 
ATOM     13  C   UNL     1      19.834  18.583  14.803  0.00  0.00    +0.003 A 
ATOM     14  C   UNL     1      19.046  19.619  15.324  0.00  0.00    +0.000 A 
ENDBRANCH   5   8
BRANCH   1  19
ATOM     15  C   UNL     1      14.052  21.985  19.909  0.00  0.00    +0.175 A 
ATOM     16  C   UNL     1      14.963  22.439  20.852  0.00  0.00    +0.206 A 
ATOM     17  C   UNL     1      16.212  22.920  20.464  0.00  0.00    +0.175 A 
ATOM     18  C   UNL     1      16.580  22.906  19.125  0.00  0.00    +0.040 A 
ATOM     19  C   UNL     1      15.688  22.460  18.152  0.00  0.00    +0.009 A 
ATOM     20  C   UNL     1      14.437  21.992  18.564  0.00  0.00    +0.040 A 
BRANCH  15  22
ATOM     21  C   UNL     1      11.591  22.306  19.978  0.00  0.00    +0.253 C 
ATOM     22  O   UNL     1      12.798  21.546  20.337  0.00  0.00    -0.468 OA
ENDBRANCH  15  22
BRANCH  16  23
ATOM     23  O   UNL     1      14.658  22.439  22.179  0.00  0.00    -0.465 OA
ATOM     24  C   UNL     1      14.005  23.638  22.559  0.00  0.00    +0.253 C 
ENDBRANCH  16  23
BRANCH  17  25
ATOM     25  O   UNL     1      17.023  23.382  21.451  0.00  0.00    -0.468 OA
ATOM     26  C   UNL     1      18.428  23.153  21.272  0.00  0.00    +0.253 C 
ENDBRANCH  17  25
ENDBRANCH   1  19
TORSDOF 5
ENDMDL
MODEL 3
REMARK VINA RESULT:      -7.3      2.529      4.682
REMARK  Name = 3MTF_A3F.pdb
REMARK  5 active torsions:
REMARK  status: ('A' for Active; 'I' for Inactive)
REMARK    1  A    between atoms: _14  and  _15
REMARK    2  A    between atoms: _16  and  _19
REMARK    3  A    between atoms: _17  and  _24
REMARK    4  A    between atoms: _18  and  _25
REMARK    5  A    between atoms: _20  and  _26
REMARK                            x       y       z     vdW  Elec       q    Type
REMARK                         _______ _______ _______ _____ _____    ______ ____
ROOT
ATOM      1  C   UNL     1       6.253  19.756  12.662  0.00  0.00    +0.035 A 
ATOM      2  C   UNL     1       6.838  20.644  11.783  0.00  0.00    +0.170 A 
ATOM      3  N   UNL     1       7.161  21.882  12.181  0.00  0.00    -0.226 NA
ATOM      4  C   UNL     1       6.968  22.332  13.392  0.00  0.00    +0.100 A 
ATOM      5  C   UNL     1       6.466  21.475  14.360  0.00  0.00    +0.019 A 
ATOM      6  N   UNL     1       6.964  20.289  10.509  0.00  0.00    -0.107 NA
ATOM      7  C   UNL     1       6.065  20.193  13.974  0.00  0.00    +0.004 A 
ENDROOT
BRANCH   5   8
ATOM      8  C   UNL     1       6.230  21.964  15.660  0.00  0.00    +0.005 A 
ATOM      9  C   UNL     1       6.601  23.267  15.943  0.00  0.00    +0.042 A 
ATOM     10  C   UNL     1       6.452  23.790  17.216  0.00  0.00    +0.196 A 
ATOM     11  O   UNL     1       6.845  25.069  17.435  0.00  0.00    -0.287 OA
ATOM     12  C   UNL     1       5.955  23.018  18.259  0.00  0.00    +0.042 A 
ATOM     13  C   UNL     1       5.620  21.693  17.986  0.00  0.00    +0.003 A 
ATOM     14  C   UNL     1       5.775  21.157  16.699  0.00  0.00    +0.000 A 
ENDBRANCH   5   8
BRANCH   1  19
ATOM     15  C   UNL     1       5.807  16.040  12.735  0.00  0.00    +0.175 A 
ATOM     16  C   UNL     1       5.010  15.868  11.612  0.00  0.00    +0.206 A 
ATOM     17  C   UNL     1       4.663  16.955  10.812  0.00  0.00    +0.175 A 
ATOM     18  C   UNL     1       5.075  18.235  11.156  0.00  0.00    +0.040 A 
ATOM     19  C   UNL     1       5.879  18.442  12.275  0.00  0.00    +0.009 A 
ATOM     20  C   UNL     1       6.223  17.336  13.057  0.00  0.00    +0.040 A 
BRANCH  15  22
ATOM     21  C   UNL     1       5.515  14.672  14.787  0.00  0.00    +0.253 C 
ATOM     22  O   UNL     1       6.162  14.919  13.489  0.00  0.00    -0.468 OA
ENDBRANCH  15  22
BRANCH  16  23
ATOM     23  O   UNL     1       4.555  14.636  11.256  0.00  0.00    -0.465 OA
ATOM     24  C   UNL     1       3.290  14.366  11.833  0.00  0.00    +0.253 C 
ENDBRANCH  16  23
BRANCH  17  25
ATOM     25  O   UNL     1       3.913  16.688   9.711  0.00  0.00    -0.468 OA
ATOM     26  C   UNL     1       4.416  17.197   8.467  0.00  0.00    +0.253 C 
ENDBRANCH  17  25
ENDBRANCH   1  19
TORSDOF 5
ENDMDL
MODEL 4
REMARK VINA RESULT:      -7.2      1.498      2.274
REMARK  Name = 3MTF_A3F.pdb
REMARK  5 active torsions:
REMARK  status: ('A' for Active; 'I' for Inactive)
REMARK    1  A    between atoms: _14  and  _15
REMARK    2  A    between atoms: _16  and  _19
REMARK    3  A    between atoms: _17  and  _24
REMARK    4  A    between atoms: _18  and  _25
REMARK    5  A    between atoms: _20  and  _26
REMARK                            x       y       z     vdW  Elec       q    Type
REMARK                         _______ _______ _______ _____ _____    ______ ____
ROOT
ATOM      1  C   UNL     1       6.181  22.890  15.192  0.00  0.00    +0.035 A 
ATOM      2  C   UNL     1       6.038  24.218  14.850  0.00  0.00    +0.170 A 
ATOM      3  N   UNL     1       6.084  25.173  15.790  0.00  0.00    -0.226 NA
ATOM      4  C   UNL     1       6.270  24.936  17.061  0.00  0.00    +0.100 A 
ATOM      5  C   UNL     1       6.510  23.634  17.478  0.00  0.00    +0.019 A 
ATOM      6  N   UNL     1       5.738  24.523  13.592  0.00  0.00    -0.107 NA
ATOM      7  C   UNL     1       6.418  22.604  16.538  0.00  0.00    +0.004 A 
ENDROOT
BRANCH   5   8
ATOM      8  C   UNL     1       6.684  23.370  18.851  0.00  0.00    +0.005 A 
ATOM      9  C   UNL     1       6.130  24.254  19.759  0.00  0.00    +0.042 A 
ATOM     10  C   UNL     1       6.314  24.087  21.121  0.00  0.00    +0.196 A 
ATOM     11  O   UNL     1       5.757  24.993  21.961  0.00  0.00    -0.287 OA
ATOM     12  C   UNL     1       7.087  23.045  21.621  0.00  0.00    +0.042 A 
ATOM     13  C   UNL     1       7.681  22.179  20.706  0.00  0.00    +0.003 A 
ATOM     14  C   UNL     1       7.502  22.348  19.325  0.00  0.00    +0.000 A 
ENDBRANCH   5   8
BRANCH   1  19
ATOM     15  C   UNL     1       5.862  21.126  11.906  0.00  0.00    +0.175 A 
ATOM     16  C   UNL     1       6.161  19.829  12.297  0.00  0.00    +0.206 A 
ATOM     17  C   UNL     1       6.417  19.527  13.633  0.00  0.00    +0.175 A 
ATOM     18  C   UNL     1       6.421  20.535  14.588  0.00  0.00    +0.040 A 
ATOM     19  C   UNL     1       6.121  21.848  14.230  0.00  0.00    +0.009 A 
ATOM     20  C   UNL     1       5.857  22.125  12.885  0.00  0.00    +0.040 A 
BRANCH  15  22
ATOM     21  C   UNL     1       4.187  21.609  10.137  0.00  0.00    +0.253 C 
ATOM     22  O   UNL     1       5.576  21.378  10.563  0.00  0.00    -0.468 OA
ENDBRANCH  15  22
BRANCH  16  23
ATOM     23  O   UNL     1       6.202  18.814  11.390  0.00  0.00    -0.465 OA
ATOM     24  C   UNL     1       4.942  18.179  11.268  0.00  0.00    +0.253 C 
ENDBRANCH  16  23
BRANCH  17  25
ATOM     25  O   UNL     1       6.662  18.224  13.930  0.00  0.00    -0.468 OA
ATOM     26  C   UNL     1       7.490  17.983  15.076  0.00  0.00    +0.253 C 
ENDBRANCH  17  25
ENDBRANCH   1  19
TORSDOF 5
ENDMDL
MODEL 5
REMARK VINA RESULT:      -6.9      1.875      2.958
REMARK  Name = 3MTF_A3F.pdb
REMARK  5 active torsions:
REMARK  status: ('A' for Active; 'I' for Inactive)
REMARK    1  A    between atoms: _14  and  _15
REMARK    2  A    between atoms: _16  and  _19
REMARK    3  A    between atoms: _17  and  _24
REMARK    4  A    between atoms: _18  and  _25
REMARK    5  A    between atoms: _20  and  _26
REMARK                            x       y       z     vdW  Elec       q    Type
REMARK                         _______ _______ _______ _____ _____    ______ ____
ROOT
ATOM      1  C   UNL     1       6.299  22.061  13.079  0.00  0.00    +0.035 A 
ATOM      2  C   UNL     1       6.818  23.074  12.301  0.00  0.00    +0.170 A 
ATOM      3  N   UNL     1       7.198  24.233  12.857  0.00  0.00    -0.226 NA
ATOM      4  C   UNL     1       7.122  24.487  14.136  0.00  0.00    +0.100 A 
ATOM      5  C   UNL     1       6.693  23.489  15.000  0.00  0.00    +0.019 A 
ATOM      6  N   UNL     1       6.823  22.925  10.981  0.00  0.00    -0.107 NA
ATOM      7  C   UNL     1       6.236  22.286  14.455  0.00  0.00    +0.004 A 
ENDROOT
BRANCH   5   8
ATOM      8  C   UNL     1       6.583  23.767  16.377  0.00  0.00    +0.005 A 
ATOM      9  C   UNL     1       6.814  22.736  17.270  0.00  0.00    +0.042 A 
ATOM     10  C   UNL     1       6.664  22.927  18.633  0.00  0.00    +0.196 A 
ATOM     11  O   UNL     1       6.893  21.876  19.457  0.00  0.00    -0.287 OA
ATOM     12  C   UNL     1       6.246  24.149  19.148  0.00  0.00    +0.042 A 
ATOM     13  C   UNL     1       5.973  25.175  18.247  0.00  0.00    +0.003 A 
ATOM     14  C   UNL     1       6.117  24.985  16.865  0.00  0.00    +0.000 A 
ENDBRANCH   5   8
BRANCH   1  19
ATOM     15  C   UNL     1       4.654  19.589  10.798  0.00  0.00    +0.175 A 
ATOM     16  C   UNL     1       5.144  18.405  11.330  0.00  0.00    +0.206 A 
ATOM     17  C   UNL     1       5.966  18.414  12.454  0.00  0.00    +0.175 A 
ATOM     18  C   UNL     1       6.345  19.619  13.033  0.00  0.00    +0.040 A 
ATOM     19  C   UNL     1       5.868  20.826  12.526  0.00  0.00    +0.009 A 
ATOM     20  C   UNL     1       5.035  20.791  11.403  0.00  0.00    +0.040 A 
BRANCH  15  22
ATOM     21  C   UNL     1       2.419  20.018   9.803  0.00  0.00    +0.253 C 
ATOM     22  O   UNL     1       3.804  19.533   9.693  0.00  0.00    -0.468 OA
ENDBRANCH  15  22
BRANCH  16  23
ATOM     23  O   UNL     1       4.827  17.203  10.775  0.00  0.00    -0.465 OA
ATOM     24  C   UNL     1       3.580  16.727  11.251  0.00  0.00    +0.253 C 
ENDBRANCH  16  23
BRANCH  17  25
ATOM     25  O   UNL     1       6.366  17.206  12.930  0.00  0.00    -0.468 OA
ATOM     26  C   UNL     1       6.879  17.193  14.270  0.00  0.00    +0.253 C 
ENDBRANCH  17  25
ENDBRANCH   1  19
TORSDOF 5
ENDMDL
MODEL 6
REMARK VINA RESULT:      -6.9      3.558      6.619
REMARK  Name = 3MTF_A3F.pdb
REMARK  5 active torsions:
REMARK  status: ('A' for Active; 'I' for Inactive)
REMARK    1  A    between atoms: _14  and  _15
REMARK    2  A    between atoms: _16  and  _19
REMARK    3  A    between atoms: _17  and  _24
REMARK    4  A    between atoms: _18  and  _25
REMARK    5  A    between atoms: _20  and  _26
REMARK                            x       y       z     vdW  Elec       q    Type
REMARK                         _______ _______ _______ _____ _____    ______ ____
ROOT
ATOM      1  C   UNL     1       5.077  21.860  11.259  0.00  0.00    +0.035 A 
ATOM      2  C   UNL     1       5.462  23.183  11.322  0.00  0.00    +0.170 A 
ATOM      3  N   UNL     1       5.993  23.684  12.447  0.00  0.00    -0.226 NA
ATOM      4  C   UNL     1       6.193  22.986  13.532  0.00  0.00    +0.100 A 
ATOM      5  C   UNL     1       5.916  21.627  13.523  0.00  0.00    +0.019 A 
ATOM      6  N   UNL     1       5.187  23.976  10.293  0.00  0.00    -0.107 NA
ATOM      7  C   UNL     1       5.311  21.076  12.390  0.00  0.00    +0.004 A 
ENDROOT
BRANCH   5   8
ATOM      8  C   UNL     1       6.104  20.876  14.701  0.00  0.00    +0.005 A 
ATOM      9  C   UNL     1       6.678  19.622  14.588  0.00  0.00    +0.042 A 
ATOM     10  C   UNL     1       6.836  18.808  15.697  0.00  0.00    +0.196 A 
ATOM     11  O   UNL     1       7.393  17.585  15.522  0.00  0.00    -0.287 OA
ATOM     12  C   UNL     1       6.397  19.210  16.954  0.00  0.00    +0.042 A 
ATOM     13  C   UNL     1       5.782  20.455  17.061  0.00  0.00    +0.003 A 
ATOM     14  C   UNL     1       5.613  21.280  15.939  0.00  0.00    +0.000 A 
ENDBRANCH   5   8
BRANCH   1  19
ATOM     15  C   UNL     1       4.722  20.013   8.022  0.00  0.00    +0.175 A 
ATOM     16  C   UNL     1       3.342  20.037   7.879  0.00  0.00    +0.206 A 
ATOM     17  C   UNL     1       2.539  20.695   8.809  0.00  0.00    +0.175 A 
ATOM     18  C   UNL     1       3.111  21.298   9.922  0.00  0.00    +0.040 A 
ATOM     19  C   UNL     1       4.494  21.295  10.094  0.00  0.00    +0.009 A 
ATOM     20  C   UNL     1       5.280  20.638   9.143  0.00  0.00    +0.040 A 
BRANCH  15  22
ATOM     21  C   UNL     1       5.645  17.910   7.077  0.00  0.00    +0.253 C 
ATOM     22  O   UNL     1       5.490  19.373   7.049  0.00  0.00    -0.468 OA
ENDBRANCH  15  22
BRANCH  16  23
ATOM     23  O   UNL     1       2.735  19.430   6.823  0.00  0.00    -0.465 OA
ATOM     24  C   UNL     1       2.774  20.247   5.665  0.00  0.00    +0.253 C 
ENDBRANCH  16  23
BRANCH  17  25
ATOM     25  O   UNL     1       1.203  20.702   8.567  0.00  0.00    -0.468 OA
ATOM     26  C   UNL     1       0.641  21.959   8.163  0.00  0.00    +0.253 C 
ENDBRANCH  17  25
ENDBRANCH   1  19
TORSDOF 5
ENDMDL
MODEL 7
REMARK VINA RESULT:      -6.8      3.591      6.590
REMARK  Name = 3MTF_A3F.pdb
REMARK  5 active torsions:
REMARK  status: ('A' for Active; 'I' for Inactive)
REMARK    1  A    between atoms: _14  and  _15
REMARK    2  A    between atoms: _16  and  _19
REMARK    3  A    between atoms: _17  and  _24
REMARK    4  A    between atoms: _18  and  _25
REMARK    5  A    between atoms: _20  and  _26
REMARK                            x       y       z     vdW  Elec       q    Type
REMARK                         _______ _______ _______ _____ _____    ______ ____
ROOT
ATOM      1  C   UNL     1       5.038  21.833  11.272  0.00  0.00    +0.035 A 
ATOM      2  C   UNL     1       5.461  23.145  11.315  0.00  0.00    +0.170 A 
ATOM      3  N   UNL     1       6.030  23.642  12.423  0.00  0.00    -0.226 NA
ATOM      4  C   UNL     1       6.233  22.948  13.511  0.00  0.00    +0.100 A 
ATOM      5  C   UNL     1       5.917  21.596  13.520  0.00  0.00    +0.019 A 
ATOM      6  N   UNL     1       5.188  23.937  10.284  0.00  0.00    -0.107 NA
ATOM      7  C   UNL     1       5.273  21.054  12.405  0.00  0.00    +0.004 A 
ENDROOT
BRANCH   5   8
ATOM      8  C   UNL     1       6.109  20.851  14.701  0.00  0.00    +0.005 A 
ATOM      9  C   UNL     1       6.681  19.596  14.592  0.00  0.00    +0.042 A 
ATOM     10  C   UNL     1       6.842  18.787  15.704  0.00  0.00    +0.196 A 
ATOM     11  O   UNL     1       7.397  17.562  15.532  0.00  0.00    -0.287 OA
ATOM     12  C   UNL     1       6.409  19.195  16.960  0.00  0.00    +0.042 A 
ATOM     13  C   UNL     1       5.796  20.441  17.064  0.00  0.00    +0.003 A 
ATOM     14  C   UNL     1       5.623  21.261  15.939  0.00  0.00    +0.000 A 
ENDBRANCH   5   8
BRANCH   1  19
ATOM     15  C   UNL     1       2.402  20.880   8.790  0.00  0.00    +0.175 A 
ATOM     16  C   UNL     1       3.195  20.326   7.795  0.00  0.00    +0.206 A 
ATOM     17  C   UNL     1       4.574  20.222   7.958  0.00  0.00    +0.175 A 
ATOM     18  C   UNL     1       5.182  20.716   9.104  0.00  0.00    +0.040 A 
ATOM     19  C   UNL     1       4.415  21.275  10.125  0.00  0.00    +0.009 A 
ATOM     20  C   UNL     1       3.031  21.360   9.944  0.00  0.00    +0.040 A 
BRANCH  15  22
ATOM     21  C   UNL     1       0.397  22.150   8.061  0.00  0.00    +0.253 C 
ATOM     22  O   UNL     1       1.020  20.932   8.602  0.00  0.00    -0.468 OA
ENDBRANCH  15  22
BRANCH  16  23
ATOM     23  O   UNL     1       2.646  19.860   6.640  0.00  0.00    -0.465 OA
ATOM     24  C   UNL     1       2.110  18.559   6.811  0.00  0.00    +0.253 C 
ENDBRANCH  16  23
BRANCH  17  25
ATOM     25  O   UNL     1       5.266  19.629   6.949  0.00  0.00    -0.468 OA
ATOM     26  C   UNL     1       5.751  18.304   7.210  0.00  0.00    +0.253 C 
ENDBRANCH  17  25
ENDBRANCH   1  19
TORSDOF 5
ENDMDL
MODEL 8
REMARK VINA RESULT:      -6.8      2.630      4.243
REMARK  Name = 3MTF_A3F.pdb
REMARK  5 active torsions:
REMARK  status: ('A' for Active; 'I' for Inactive)
REMARK    1  A    between atoms: _14  and  _15
REMARK    2  A    between atoms: _16  and  _19
REMARK    3  A    between atoms: _17  and  _24
REMARK    4  A    between atoms: _18  and  _25
REMARK    5  A    between atoms: _20  and  _26
REMARK                            x       y       z     vdW  Elec       q    Type
REMARK                         _______ _______ _______ _____ _____    ______ ____
ROOT
ATOM      1  C   UNL     1       5.982  20.289  12.327  0.00  0.00    +0.035 A 
ATOM      2  C   UNL     1       6.733  21.192  11.603  0.00  0.00    +0.170 A 
ATOM      3  N   UNL     1       7.223  22.294  12.188  0.00  0.00    -0.226 NA
ATOM      4  C   UNL     1       7.047  22.590  13.448  0.00  0.00    +0.100 A 
ATOM      5  C   UNL     1       6.378  21.691  14.267  0.00  0.00    +0.019 A 
ATOM      6  N   UNL     1       6.860  21.009  10.294  0.00  0.00    -0.107 NA
ATOM      7  C   UNL     1       5.805  20.557  13.685  0.00  0.00    +0.004 A 
ENDROOT
BRANCH   5   8
ATOM      8  C   UNL     1       6.162  22.019  15.620  0.00  0.00    +0.005 A 
ATOM      9  C   UNL     1       6.564  23.268  16.059  0.00  0.00    +0.042 A 
ATOM     10  C   UNL     1       6.436  23.631  17.389  0.00  0.00    +0.196 A 
ATOM     11  O   UNL     1       6.859  24.864  17.762  0.00  0.00    -0.287 OA
ATOM     12  C   UNL     1       5.930  22.745  18.333  0.00  0.00    +0.042 A 
ATOM     13  C   UNL     1       5.564  21.473  17.899  0.00  0.00    +0.003 A 
ATOM     14  C   UNL     1       5.698  21.098  16.555  0.00  0.00    +0.000 A 
ENDBRANCH   5   8
BRANCH   1  19
ATOM     15  C   UNL     1       4.134  18.055   9.960  0.00  0.00    +0.175 A 
ATOM     16  C   UNL     1       4.472  16.815  10.482  0.00  0.00    +0.206 A 
ATOM     17  C   UNL     1       5.258  16.714  11.628  0.00  0.00    +0.175 A 
ATOM     18  C   UNL     1       5.754  17.859  12.238  0.00  0.00    +0.040 A 
ATOM     19  C   UNL     1       5.430  19.120  11.741  0.00  0.00    +0.009 A 
ATOM     20  C   UNL     1       4.632  19.197  10.596  0.00  0.00    +0.040 A 
BRANCH  15  22
ATOM     21  C   UNL     1       3.755  18.853   7.639  0.00  0.00    +0.253 C 
ATOM     22  O   UNL     1       3.315  18.111   8.831  0.00  0.00    -0.468 OA
ENDBRANCH  15  22
BRANCH  16  23
ATOM     23  O   UNL     1       4.037  15.665   9.898  0.00  0.00    -0.465 OA
ATOM     24  C   UNL     1       2.789  15.256  10.429  0.00  0.00    +0.253 C 
ENDBRANCH  16  23
BRANCH  17  25
ATOM     25  O   UNL     1       5.506  15.461  12.092  0.00  0.00    -0.468 OA
ATOM     26  C   UNL     1       6.148  15.377  13.372  0.00  0.00    +0.253 C 
ENDBRANCH  17  25
ENDBRANCH   1  19
TORSDOF 5
ENDMDL
MODEL 9
REMARK VINA RESULT:      -6.7      3.922      7.369
REMARK  Name = 3MTF_A3F.pdb
REMARK  5 active torsions:
REMARK  status: ('A' for Active; 'I' for Inactive)
REMARK    1  A    between atoms: _14  and  _15
REMARK    2  A    between atoms: _16  and  _19
REMARK    3  A    between atoms: _17  and  _24
REMARK    4  A    between atoms: _18  and  _25
REMARK    5  A    between atoms: _20  and  _26
REMARK                            x       y       z     vdW  Elec       q    Type
REMARK                         _______ _______ _______ _____ _____    ______ ____
ROOT
ATOM      1  C   UNL     1       5.227  18.999  10.192  0.00  0.00    +0.035 A 
ATOM      2  C   UNL     1       6.168  19.735   9.503  0.00  0.00    +0.170 A 
ATOM      3  N   UNL     1       7.104  20.433  10.162  0.00  0.00    -0.226 NA
ATOM      4  C   UNL     1       7.207  20.465  11.464  0.00  0.00    +0.100 A 
ATOM      5  C   UNL     1       6.354  19.682  12.229  0.00  0.00    +0.019 A 
ATOM      6  N   UNL     1       6.057  19.835   8.183  0.00  0.00    -0.107 NA
ATOM      7  C   UNL     1       5.330  18.983  11.584  0.00  0.00    +0.004 A 
ENDROOT
BRANCH   5   8
ATOM      8  C   UNL     1       6.443  19.735  13.635  0.00  0.00    +0.005 A 
ATOM      9  C   UNL     1       6.839  18.591  14.305  0.00  0.00    +0.042 A 
ATOM     10  C   UNL     1       6.890  18.557  15.688  0.00  0.00    +0.196 A 
ATOM     11  O   UNL     1       7.274  17.405  16.289  0.00  0.00    -0.287 OA
ATOM     12  C   UNL     1       6.515  19.658  16.450  0.00  0.00    +0.042 A 
ATOM     13  C   UNL     1       6.076  20.796  15.777  0.00  0.00    +0.003 A 
ATOM     14  C   UNL     1       6.017  20.833  14.377  0.00  0.00    +0.000 A 
ENDBRANCH   5   8
BRANCH   1  19
ATOM     15  C   UNL     1       3.379  16.148   8.622  0.00  0.00    +0.175 A 
ATOM     16  C   UNL     1       2.155  16.756   8.380  0.00  0.00    +0.206 A 
ATOM     17  C   UNL     1       1.954  18.100   8.685  0.00  0.00    +0.175 A 
ATOM     18  C   UNL     1       2.967  18.841   9.279  0.00  0.00    +0.040 A 
ATOM     19  C   UNL     1       4.209  18.262   9.532  0.00  0.00    +0.009 A 
ATOM     20  C   UNL     1       4.391  16.914   9.209  0.00  0.00    +0.040 A 
BRANCH  15  22
ATOM     21  C   UNL     1       4.149  13.865   9.226  0.00  0.00    +0.253 C 
ATOM     22  O   UNL     1       3.549  14.808   8.268  0.00  0.00    -0.468 OA
ENDBRANCH  15  22
BRANCH  16  23
ATOM     23  O   UNL     1       1.122  16.060   7.830  0.00  0.00    -0.465 OA
ATOM     24  C   UNL     1       1.209  16.038   6.416  0.00  0.00    +0.253 C 
ENDBRANCH  16  23
BRANCH  17  25
ATOM     25  O   UNL     1       0.737  18.622   8.377  0.00  0.00    -0.468 OA
ATOM     26  C   UNL     1       0.727  19.653   7.380  0.00  0.00    +0.253 C 
ENDBRANCH  17  25
ENDBRANCH   1  19
TORSDOF 5
ENDMDL
