MODEL 1
REMARK VINA RESULT:      -6.7      0.000      0.000
REMARK  Name = 4DYM_IYZ.pdb
REMARK  4 active torsions:
REMARK  status: ('A' for Active; 'I' for Inactive)
REMARK    1  A    between atoms: _11  and  _18
REMARK    2  A    between atoms: _11  and  _21
REMARK    3  A    between atoms: _12  and  _13
REMARK    4  A    between atoms: _14  and  _16
REMARK                            x       y       z     vdW  Elec       q    Type
REMARK                         _______ _______ _______ _____ _____    ______ ____
ROOT
ATOM      1  C   UNL     1       6.976  24.094  18.290  0.00  0.00    +0.104 A 
ATOM      2  N   UNL     1       8.271  23.782  18.707  0.00  0.00    -0.210 N 
ATOM      3  N   UNL     1       9.389  23.968  18.200  0.00  0.00    -0.147 NA
ATOM      4  C   UNL     1      10.552  23.607  18.794  0.00  0.00    +0.168 A 
ATOM      5  N   UNL     1      11.726  23.807  18.144  0.00  0.00    -0.219 NA
ATOM      6  C   UNL     1      10.522  23.024  20.069  0.00  0.00    +0.041 A 
ATOM      7  C   UNL     1       9.294  22.838  20.661  0.00  0.00    +0.042 A 
ATOM      8  C   UNL     1       8.144  23.216  19.975  0.00  0.00    +0.164 A 
ATOM      9  N   UNL     1       6.837  23.145  20.253  0.00  0.00    -0.223 NA
ATOM     10  C   UNL     1       6.129  23.703  19.261  0.00  0.00    +0.120 A 
ENDROOT
BRANCH   1  13
ATOM     11  C   UNL     1       6.542  26.787  15.785  0.00  0.00    +0.035 A 
ATOM     12  C   UNL     1       6.812  26.116  16.965  0.00  0.00    +0.004 A 
ATOM     13  C   UNL     1       6.713  24.726  17.074  0.00  0.00    +0.019 A 
ATOM     14  C   UNL     1       6.270  23.985  15.967  0.00  0.00    +0.002 A 
ATOM     15  C   UNL     1       5.980  24.657  14.764  0.00  0.00    +0.000 A 
ATOM     16  C   UNL     1       6.127  26.059  14.678  0.00  0.00    +0.003 A 
BRANCH  11  18
ATOM     17  C   UNL     1       7.623  29.015  16.774  0.00  0.00    +0.077 C 
ATOM     18  C   UNL     1       6.743  28.338  15.730  0.00  0.00    +0.173 C 
ATOM     19  O   UNL     1       6.257  29.028  14.830  0.00  0.00    -0.291 OA
ENDBRANCH  11  18
ENDBRANCH   1  13
BRANCH   5  20
ATOM     20  C   UNL     1      11.862  24.777  17.053  0.00  0.00    +0.114 C 
BRANCH  20  21
ATOM     21  C   UNL     1      11.810  26.238  17.547  0.00  0.00    +0.022 C 
ATOM     22  C   UNL     1      12.160  27.335  16.532  0.00  0.00    +0.002 C 
ATOM     23  C   UNL     1      10.702  27.099  16.892  0.00  0.00    +0.002 C 
ENDBRANCH  20  21
ENDBRANCH   5  20
TORSDOF 4
ENDMDL
MODEL 2
REMARK VINA RESULT:      -6.5      1.939      3.153
REMARK  Name = 4DYM_IYZ.pdb
REMARK  4 active torsions:
REMARK  status: ('A' for Active; 'I' for Inactive)
REMARK    1  A    between atoms: _11  and  _18
REMARK    2  A    between atoms: _11  and  _21
REMARK    3  A    between atoms: _12  and  _13
REMARK    4  A    between atoms: _14  and  _16
REMARK                            x       y       z     vdW  Elec       q    Type
REMARK                         _______ _______ _______ _____ _____    ______ ____
ROOT
ATOM      1  C   UNL     1       6.232  25.494  18.497  0.00  0.00    +0.104 A 
ATOM      2  N   UNL     1       6.634  24.624  19.512  0.00  0.00    -0.210 N 
ATOM      3  N   UNL     1       7.515  23.752  19.577  0.00  0.00    -0.147 NA
ATOM      4  C   UNL     1       7.770  23.023  20.691  0.00  0.00    +0.168 A 
ATOM      5  N   UNL     1       8.722  22.057  20.655  0.00  0.00    -0.219 NA
ATOM      6  C   UNL     1       7.037  23.273  21.859  0.00  0.00    +0.041 A 
ATOM      7  C   UNL     1       6.076  24.257  21.816  0.00  0.00    +0.042 A 
ATOM      8  C   UNL     1       5.861  24.947  20.627  0.00  0.00    +0.164 A 
ATOM      9  N   UNL     1       5.009  25.911  20.259  0.00  0.00    -0.223 NA
ATOM     10  C   UNL     1       5.248  26.271  18.991  0.00  0.00    +0.120 A 
ENDROOT
BRANCH   1  13
ATOM     11  C   UNL     1       8.597  26.291  15.762  0.00  0.00    +0.035 A 
ATOM     12  C   UNL     1       7.985  26.243  17.002  0.00  0.00    +0.004 A 
ATOM     13  C   UNL     1       6.826  25.497  17.235  0.00  0.00    +0.019 A 
ATOM     14  C   UNL     1       6.227  24.816  16.163  0.00  0.00    +0.002 A 
ATOM     15  C   UNL     1       6.833  24.867  14.894  0.00  0.00    +0.000 A 
ATOM     16  C   UNL     1       8.025  25.600  14.703  0.00  0.00    +0.003 A 
BRANCH  11  18
ATOM     17  C   UNL     1      10.900  27.174  16.778  0.00  0.00    +0.077 C 
ATOM     18  C   UNL     1       9.930  27.096  15.604  0.00  0.00    +0.173 C 
ATOM     19  O   UNL     1      10.251  27.624  14.536  0.00  0.00    -0.291 OA
ENDBRANCH  11  18
ENDBRANCH   1  13
BRANCH   5  20
ATOM     20  C   UNL     1       9.789  22.046  19.649  0.00  0.00    +0.114 C 
BRANCH  20  21
ATOM     21  C   UNL     1      10.954  22.993  20.007  0.00  0.00    +0.022 C 
ATOM     22  C   UNL     1      12.176  22.983  19.079  0.00  0.00    +0.002 C 
ATOM     23  C   UNL     1      11.189  24.136  18.990  0.00  0.00    +0.002 C 
ENDBRANCH  20  21
ENDBRANCH   5  20
TORSDOF 4
ENDMDL
MODEL 3
REMARK VINA RESULT:      -5.3      2.564      3.972
REMARK  Name = 4DYM_IYZ.pdb
REMARK  4 active torsions:
REMARK  status: ('A' for Active; 'I' for Inactive)
REMARK    1  A    between atoms: _11  and  _18
REMARK    2  A    between atoms: _11  and  _21
REMARK    3  A    between atoms: _12  and  _13
REMARK    4  A    between atoms: _14  and  _16
REMARK                            x       y       z     vdW  Elec       q    Type
REMARK                         _______ _______ _______ _____ _____    ______ ____
ROOT
ATOM      1  C   UNL     1       7.972  24.305  17.993  0.00  0.00    +0.104 A 
ATOM      2  N   UNL     1       8.157  23.781  19.273  0.00  0.00    -0.210 N 
ATOM      3  N   UNL     1       9.160  23.379  19.884  0.00  0.00    -0.147 NA
ATOM      4  C   UNL     1       9.130  22.925  21.161  0.00  0.00    +0.168 A 
ATOM      5  N   UNL     1      10.269  22.461  21.733  0.00  0.00    -0.219 NA
ATOM      6  C   UNL     1       7.918  22.934  21.866  0.00  0.00    +0.041 A 
ATOM      7  C   UNL     1       6.801  23.404  21.216  0.00  0.00    +0.042 A 
ATOM      8  C   UNL     1       6.911  23.833  19.897  0.00  0.00    +0.164 A 
ATOM      9  N   UNL     1       6.034  24.305  19.002  0.00  0.00    -0.223 NA
ATOM     10  C   UNL     1       6.669  24.625  17.866  0.00  0.00    +0.120 A 
ENDROOT
BRANCH   1  13
ATOM     11  C   UNL     1      11.001  25.686  16.370  0.00  0.00    +0.035 A 
ATOM     12  C   UNL     1       9.955  25.485  17.253  0.00  0.00    +0.004 A 
ATOM     13  C   UNL     1       9.022  24.457  17.088  0.00  0.00    +0.019 A 
ATOM     14  C   UNL     1       9.112  23.631  15.956  0.00  0.00    +0.002 A 
ATOM     15  C   UNL     1      10.165  23.832  15.042  0.00  0.00    +0.000 A 
ATOM     16  C   UNL     1      11.112  24.857  15.261  0.00  0.00    +0.003 A 
BRANCH  11  18
ATOM     17  C   UNL     1      12.526  27.029  18.096  0.00  0.00    +0.077 C 
ATOM     18  C   UNL     1      12.040  26.817  16.667  0.00  0.00    +0.173 C 
ATOM     19  O   UNL     1      12.526  27.510  15.769  0.00  0.00    -0.291 OA
ENDBRANCH  11  18
ENDBRANCH   1  13
BRANCH   5  20
ATOM     20  C   UNL     1      11.600  22.824  21.235  0.00  0.00    +0.114 C 
BRANCH  20  21
ATOM     21  C   UNL     1      12.019  21.998  20.000  0.00  0.00    +0.022 C 
ATOM     22  C   UNL     1      12.616  22.764  18.812  0.00  0.00    +0.002 C 
ATOM     23  C   UNL     1      13.542  21.980  19.726  0.00  0.00    +0.002 C 
ENDBRANCH  20  21
ENDBRANCH   5  20
TORSDOF 4
ENDMDL
MODEL 4
REMARK VINA RESULT:      -5.3     18.031     20.150
REMARK  Name = 4DYM_IYZ.pdb
REMARK  4 active torsions:
REMARK  status: ('A' for Active; 'I' for Inactive)
REMARK    1  A    between atoms: _11  and  _18
REMARK    2  A    between atoms: _11  and  _21
REMARK    3  A    between atoms: _12  and  _13
REMARK    4  A    between atoms: _14  and  _16
REMARK                            x       y       z     vdW  Elec       q    Type
REMARK                         _______ _______ _______ _____ _____    ______ ____
ROOT
ATOM      1  C   UNL     1       3.588  24.883  36.637  0.00  0.00    +0.104 A 
ATOM      2  N   UNL     1       2.535  23.978  36.489  0.00  0.00    -0.210 N 
ATOM      3  N   UNL     1       1.302  24.115  36.460  0.00  0.00    -0.147 NA
ATOM      4  C   UNL     1       0.437  23.089  36.273  0.00  0.00    +0.168 A 
ATOM      5  N   UNL     1      -0.899  23.326  36.304  0.00  0.00    -0.219 NA
ATOM      6  C   UNL     1       0.937  21.797  36.060  0.00  0.00    +0.041 A 
ATOM      7  C   UNL     1       2.303  21.630  36.057  0.00  0.00    +0.042 A 
ATOM      8  C   UNL     1       3.123  22.731  36.278  0.00  0.00    +0.164 A 
ATOM      9  N   UNL     1       4.449  22.894  36.363  0.00  0.00    -0.223 NA
ATOM     10  C   UNL     1       4.740  24.189  36.544  0.00  0.00    +0.120 A 
ENDROOT
BRANCH   1  13
ATOM     11  C   UNL     1       2.687  28.398  35.897  0.00  0.00    +0.035 A 
ATOM     12  C   UNL     1       2.890  27.035  35.769  0.00  0.00    +0.004 A 
ATOM     13  C   UNL     1       3.380  26.250  36.818  0.00  0.00    +0.019 A 
ATOM     14  C   UNL     1       3.731  26.871  38.027  0.00  0.00    +0.002 A 
ATOM     15  C   UNL     1       3.541  28.259  38.166  0.00  0.00    +0.000 A 
ATOM     16  C   UNL     1       3.008  29.015  37.098  0.00  0.00    +0.003 A 
BRANCH  11  18
ATOM     17  C   UNL     1       2.942  29.505  33.485  0.00  0.00    +0.077 C 
ATOM     18  C   UNL     1       2.071  29.190  34.696  0.00  0.00    +0.173 C 
ATOM     19  O   UNL     1       0.883  29.519  34.671  0.00  0.00    -0.291 OA
ENDBRANCH  11  18
ENDBRANCH   1  13
BRANCH   5  20
ATOM     20  C   UNL     1      -1.463  24.661  36.082  0.00  0.00    +0.114 C 
BRANCH  20  21
ATOM     21  C   UNL     1      -1.648  24.988  34.585  0.00  0.00    +0.022 C 
ATOM     22  C   UNL     1      -2.218  26.369  34.233  0.00  0.00    +0.002 C 
ATOM     23  C   UNL     1      -0.730  26.117  34.056  0.00  0.00    +0.002 C 
ENDBRANCH  20  21
ENDBRANCH   5  20
TORSDOF 4
ENDMDL
MODEL 5
REMARK VINA RESULT:      -5.1     15.438     17.397
REMARK  Name = 4DYM_IYZ.pdb
REMARK  4 active torsions:
REMARK  status: ('A' for Active; 'I' for Inactive)
REMARK    1  A    between atoms: _11  and  _18
REMARK    2  A    between atoms: _11  and  _21
REMARK    3  A    between atoms: _12  and  _13
REMARK    4  A    between atoms: _14  and  _16
REMARK                            x       y       z     vdW  Elec       q    Type
REMARK                         _______ _______ _______ _____ _____    ______ ____
ROOT
ATOM      1  C   UNL     1      10.703  35.115  29.236  0.00  0.00    +0.104 A 
ATOM      2  N   UNL     1       9.337  35.368  29.377  0.00  0.00    -0.210 N 
ATOM      3  N   UNL     1       8.551  35.248  30.330  0.00  0.00    -0.147 NA
ATOM      4  C   UNL     1       7.239  35.584  30.268  0.00  0.00    +0.168 A 
ATOM      5  N   UNL     1       6.443  35.374  31.346  0.00  0.00    -0.219 NA
ATOM      6  C   UNL     1       6.726  36.136  29.086  0.00  0.00    +0.041 A 
ATOM      7  C   UNL     1       7.589  36.306  28.029  0.00  0.00    +0.042 A 
ATOM      8  C   UNL     1       8.917  35.914  28.165  0.00  0.00    +0.164 A 
ATOM      9  N   UNL     1       9.972  35.920  27.341  0.00  0.00    -0.223 NA
ATOM     10  C   UNL     1      11.058  35.474  27.986  0.00  0.00    +0.120 A 
ENDROOT
BRANCH   1  13
ATOM     11  C   UNL     1      12.247  32.682  31.562  0.00  0.00    +0.035 A 
ATOM     12  C   UNL     1      11.505  33.230  30.531  0.00  0.00    +0.004 A 
ATOM     13  C   UNL     1      11.481  34.605  30.275  0.00  0.00    +0.019 A 
ATOM     14  C   UNL     1      12.188  35.469  31.127  0.00  0.00    +0.002 A 
ATOM     15  C   UNL     1      12.937  34.925  32.188  0.00  0.00    +0.000 A 
ATOM     16  C   UNL     1      12.969  33.528  32.394  0.00  0.00    +0.003 A 
BRANCH  11  18
ATOM     17  C   UNL     1      11.576  30.248  30.704  0.00  0.00    +0.077 C 
ATOM     18  C   UNL     1      12.272  31.127  31.736  0.00  0.00    +0.173 C 
ATOM     19  O   UNL     1      12.890  30.583  32.655  0.00  0.00    -0.291 OA
ENDBRANCH  11  18
ENDBRANCH   1  13
BRANCH   5  20
ATOM     20  C   UNL     1       6.982  35.227  32.702  0.00  0.00    +0.114 C 
BRANCH  20  21
ATOM     21  C   UNL     1       6.930  33.771  33.209  0.00  0.00    +0.022 C 
ATOM     22  C   UNL     1       8.007  32.808  32.691  0.00  0.00    +0.002 C 
ATOM     23  C   UNL     1       8.125  33.358  34.103  0.00  0.00    +0.002 C 
ENDBRANCH  20  21
ENDBRANCH   5  20
TORSDOF 4
ENDMDL
MODEL 6
REMARK VINA RESULT:      -5.0     19.293     20.903
REMARK  Name = 4DYM_IYZ.pdb
REMARK  4 active torsions:
REMARK  status: ('A' for Active; 'I' for Inactive)
REMARK    1  A    between atoms: _11  and  _18
REMARK    2  A    between atoms: _11  and  _21
REMARK    3  A    between atoms: _12  and  _13
REMARK    4  A    between atoms: _14  and  _16
REMARK                            x       y       z     vdW  Elec       q    Type
REMARK                         _______ _______ _______ _____ _____    ______ ____
ROOT
ATOM      1  C   UNL     1       2.451  26.916  35.977  0.00  0.00    +0.104 A 
ATOM      2  N   UNL     1       1.225  26.319  35.680  0.00  0.00    -0.210 N 
ATOM      3  N   UNL     1       0.691  25.260  36.045  0.00  0.00    -0.147 NA
ATOM      4  C   UNL     1      -0.547  24.869  35.655  0.00  0.00    +0.168 A 
ATOM      5  N   UNL     1      -1.031  23.671  36.067  0.00  0.00    -0.219 NA
ATOM      6  C   UNL     1      -1.302  25.707  34.822  0.00  0.00    +0.041 A 
ATOM      7  C   UNL     1      -0.739  26.900  34.431  0.00  0.00    +0.042 A 
ATOM      8  C   UNL     1       0.546  27.218  34.858  0.00  0.00    +0.164 A 
ATOM      9  N   UNL     1       1.363  28.256  34.639  0.00  0.00    -0.223 NA
ATOM     10  C   UNL     1       2.496  28.099  35.335  0.00  0.00    +0.120 A 
ENDROOT
BRANCH   1  13
ATOM     11  C   UNL     1       4.731  24.376  37.415  0.00  0.00    +0.035 A 
ATOM     12  C   UNL     1       3.820  25.013  36.591  0.00  0.00    +0.004 A 
ATOM     13  C   UNL     1       3.387  26.322  36.824  0.00  0.00    +0.019 A 
ATOM     14  C   UNL     1       3.848  26.999  37.965  0.00  0.00    +0.002 A 
ATOM     15  C   UNL     1       4.766  26.359  38.818  0.00  0.00    +0.000 A 
ATOM     16  C   UNL     1       5.211  25.049  38.532  0.00  0.00    +0.003 A 
BRANCH  11  18
ATOM     17  C   UNL     1       6.156  22.196  37.989  0.00  0.00    +0.077 C 
ATOM     18  C   UNL     1       5.214  22.935  37.044  0.00  0.00    +0.173 C 
ATOM     19  O   UNL     1       4.811  22.350  36.036  0.00  0.00    -0.291 OA
ENDBRANCH  11  18
ENDBRANCH   1  13
BRANCH   5  20
ATOM     20  C   UNL     1      -0.506  22.978  37.248  0.00  0.00    +0.114 C 
BRANCH  20  21
ATOM     21  C   UNL     1       0.253  21.682  36.889  0.00  0.00    +0.022 C 
ATOM     22  C   UNL     1       1.430  21.806  35.912  0.00  0.00    +0.002 C 
ATOM     23  C   UNL     1       1.715  21.633  37.394  0.00  0.00    +0.002 C 
ENDBRANCH  20  21
ENDBRANCH   5  20
TORSDOF 4
ENDMDL
MODEL 7
REMARK VINA RESULT:      -4.9     16.085     17.680
REMARK  Name = 4DYM_IYZ.pdb
REMARK  4 active torsions:
REMARK  status: ('A' for Active; 'I' for Inactive)
REMARK    1  A    between atoms: _11  and  _18
REMARK    2  A    between atoms: _11  and  _21
REMARK    3  A    between atoms: _12  and  _13
REMARK    4  A    between atoms: _14  and  _16
REMARK                            x       y       z     vdW  Elec       q    Type
REMARK                         _______ _______ _______ _____ _____    ______ ____
ROOT
ATOM      1  C   UNL     1      12.027  31.417  33.605  0.00  0.00    +0.104 A 
ATOM      2  N   UNL     1      10.972  31.449  34.519  0.00  0.00    -0.210 N 
ATOM      3  N   UNL     1       9.753  31.649  34.394  0.00  0.00    -0.147 NA
ATOM      4  C   UNL     1       8.876  31.606  35.426  0.00  0.00    +0.168 A 
ATOM      5  N   UNL     1       7.567  31.885  35.204  0.00  0.00    -0.219 NA
ATOM      6  C   UNL     1       9.339  31.283  36.709  0.00  0.00    +0.041 A 
ATOM      7  C   UNL     1      10.682  31.027  36.862  0.00  0.00    +0.042 A 
ATOM      8  C   UNL     1      11.521  31.113  35.756  0.00  0.00    +0.164 A 
ATOM      9  N   UNL     1      12.839  30.956  35.580  0.00  0.00    -0.223 NA
ATOM     10  C   UNL     1      13.147  31.103  34.285  0.00  0.00    +0.120 A 
ENDROOT
BRANCH   1  13
ATOM     11  C   UNL     1      11.337  33.223  30.447  0.00  0.00    +0.035 A 
ATOM     12  C   UNL     1      11.544  32.943  31.785  0.00  0.00    +0.004 A 
ATOM     13  C   UNL     1      11.845  31.656  32.243  0.00  0.00    +0.019 A 
ATOM     14  C   UNL     1      11.884  30.597  31.322  0.00  0.00    +0.002 A 
ATOM     15  C   UNL     1      11.662  30.866  29.958  0.00  0.00    +0.000 A 
ATOM     16  C   UNL     1      11.398  32.185  29.526  0.00  0.00    +0.003 A 
BRANCH  11  18
ATOM     17  C   UNL     1      10.529  35.696  31.034  0.00  0.00    +0.077 C 
ATOM     18  C   UNL     1      11.072  34.703  30.012  0.00  0.00    +0.173 C 
ATOM     19  O   UNL     1      11.344  35.110  28.880  0.00  0.00    -0.291 OA
ENDBRANCH  11  18
ENDBRANCH   1  13
BRANCH   5  20
ATOM     20  C   UNL     1       6.962  31.793  33.871  0.00  0.00    +0.114 C 
BRANCH  20  21
ATOM     21  C   UNL     1       6.691  33.177  33.245  0.00  0.00    +0.022 C 
ATOM     22  C   UNL     1       7.791  34.238  33.382  0.00  0.00    +0.002 C 
ATOM     23  C   UNL     1       7.607  33.532  32.048  0.00  0.00    +0.002 C 
ENDBRANCH  20  21
ENDBRANCH   5  20
TORSDOF 4
ENDMDL
MODEL 8
REMARK VINA RESULT:      -4.8     12.971     14.632
REMARK  Name = 4DYM_IYZ.pdb
REMARK  4 active torsions:
REMARK  status: ('A' for Active; 'I' for Inactive)
REMARK    1  A    between atoms: _11  and  _18
REMARK    2  A    between atoms: _11  and  _21
REMARK    3  A    between atoms: _12  and  _13
REMARK    4  A    between atoms: _14  and  _16
REMARK                            x       y       z     vdW  Elec       q    Type
REMARK                         _______ _______ _______ _____ _____    ______ ____
ROOT
ATOM      1  C   UNL     1       9.060  37.887  20.912  0.00  0.00    +0.104 A 
ATOM      2  N   UNL     1       9.180  37.771  19.527  0.00  0.00    -0.210 N 
ATOM      3  N   UNL     1       8.361  37.855  18.598  0.00  0.00    -0.147 NA
ATOM      4  C   UNL     1       8.694  37.738  17.290  0.00  0.00    +0.168 A 
ATOM      5  N   UNL     1       7.723  37.796  16.344  0.00  0.00    -0.219 NA
ATOM      6  C   UNL     1      10.037  37.549  16.936  0.00  0.00    +0.041 A 
ATOM      7  C   UNL     1      10.965  37.484  17.950  0.00  0.00    +0.042 A 
ATOM      8  C   UNL     1      10.539  37.592  19.270  0.00  0.00    +0.164 A 
ATOM      9  N   UNL     1      11.168  37.543  20.451  0.00  0.00    -0.223 NA
ATOM     10  C   UNL     1      10.292  37.755  21.442  0.00  0.00    +0.120 A 
ENDROOT
BRANCH   1  13
ATOM     11  C   UNL     1       6.408  39.622  22.829  0.00  0.00    +0.035 A 
ATOM     12  C   UNL     1       7.597  39.348  22.178  0.00  0.00    +0.004 A 
ATOM     13  C   UNL     1       7.838  38.126  21.540  0.00  0.00    +0.019 A 
ATOM     14  C   UNL     1       6.862  37.119  21.609  0.00  0.00    +0.002 A 
ATOM     15  C   UNL     1       5.652  37.380  22.280  0.00  0.00    +0.000 A 
ATOM     16  C   UNL     1       5.428  38.639  22.880  0.00  0.00    +0.003 A 
BRANCH  11  18
ATOM     17  C   UNL     1       5.370  41.173  24.733  0.00  0.00    +0.077 C 
ATOM     18  C   UNL     1       6.195  41.038  23.458  0.00  0.00    +0.173 C 
ATOM     19  O   UNL     1       6.723  42.049  22.986  0.00  0.00    -0.291 OA
ENDBRANCH  11  18
ENDBRANCH   1  13
BRANCH   5  20
ATOM     20  C   UNL     1       6.418  38.414  16.599  0.00  0.00    +0.114 C 
BRANCH  20  21
ATOM     21  C   UNL     1       6.066  39.508  15.569  0.00  0.00    +0.022 C 
ATOM     22  C   UNL     1       4.838  40.380  15.862  0.00  0.00    +0.002 C 
ATOM     23  C   UNL     1       6.225  40.957  16.091  0.00  0.00    +0.002 C 
ENDBRANCH  20  21
ENDBRANCH   5  20
TORSDOF 4
ENDMDL
MODEL 9
REMARK VINA RESULT:      -4.7     16.233     17.820
REMARK  Name = 4DYM_IYZ.pdb
REMARK  4 active torsions:
REMARK  status: ('A' for Active; 'I' for Inactive)
REMARK    1  A    between atoms: _11  and  _18
REMARK    2  A    between atoms: _11  and  _21
REMARK    3  A    between atoms: _12  and  _13
REMARK    4  A    between atoms: _14  and  _16
REMARK                            x       y       z     vdW  Elec       q    Type
REMARK                         _______ _______ _______ _____ _____    ______ ____
ROOT
ATOM      1  C   UNL     1       6.545  36.009  30.230  0.00  0.00    +0.104 A 
ATOM      2  N   UNL     1       7.270  35.042  30.929  0.00  0.00    -0.210 N 
ATOM      3  N   UNL     1       7.055  34.423  31.983  0.00  0.00    -0.147 NA
ATOM      4  C   UNL     1       7.891  33.483  32.486  0.00  0.00    +0.168 A 
ATOM      5  N   UNL     1       7.597  32.891  33.671  0.00  0.00    -0.219 NA
ATOM      6  C   UNL     1       9.052  33.145  31.777  0.00  0.00    +0.041 A 
ATOM      7  C   UNL     1       9.293  33.798  30.590  0.00  0.00    +0.042 A 
ATOM      8  C   UNL     1       8.396  34.767  30.153  0.00  0.00    +0.164 A 
ATOM      9  N   UNL     1       8.358  35.579  29.089  0.00  0.00    -0.223 NA
ATOM     10  C   UNL     1       7.231  36.304  29.109  0.00  0.00    +0.120 A 
ENDROOT
BRANCH   1  13
ATOM     11  C   UNL     1       2.928  36.165  31.011  0.00  0.00    +0.035 A 
ATOM     12  C   UNL     1       4.167  35.713  30.592  0.00  0.00    +0.004 A 
ATOM     13  C   UNL     1       5.320  36.499  30.684  0.00  0.00    +0.019 A 
ATOM     14  C   UNL     1       5.212  37.813  31.166  0.00  0.00    +0.002 A 
ATOM     15  C   UNL     1       3.956  38.289  31.585  0.00  0.00    +0.000 A 
ATOM     16  C   UNL     1       2.818  37.455  31.513  0.00  0.00    +0.003 A 
BRANCH  11  18
ATOM     17  C   UNL     1       0.899  35.107  29.642  0.00  0.00    +0.077 C 
ATOM     18  C   UNL     1       1.701  35.197  30.935  0.00  0.00    +0.173 C 
ATOM     19  O   UNL     1       1.395  34.456  31.873  0.00  0.00    -0.291 OA
ENDBRANCH  11  18
ENDBRANCH   1  13
BRANCH   5  20
ATOM     20  C   UNL     1       6.237  32.869  34.219  0.00  0.00    +0.114 C 
BRANCH  20  21
ATOM     21  C   UNL     1       5.325  31.848  33.507  0.00  0.00    +0.022 C 
ATOM     22  C   UNL     1       4.113  31.324  34.289  0.00  0.00    +0.002 C 
ATOM     23  C   UNL     1       3.898  32.364  33.202  0.00  0.00    +0.002 C 
ENDBRANCH  20  21
ENDBRANCH   5  20
TORSDOF 4
ENDMDL
