MODEL 1
REMARK VINA RESULT:      -4.9      0.000      0.000
REMARK  Name = 5OY6_B4E.pdb
REMARK  0 active torsions:
REMARK  status: ('A' for Active; 'I' for Inactive)
REMARK                            x       y       z     vdW  Elec       q    Type
REMARK                         _______ _______ _______ _____ _____    ______ ____
ROOT
ATOM      1 CL   UNL     1      21.369  14.363  15.864  0.00  0.00    -0.082 Cl
ATOM      2  C   UNL     1      20.322  13.747  17.125  0.00  0.00    +0.061 A 
ATOM      3  C   UNL     1      20.572  14.141  18.429  0.00  0.00    +0.012 A 
ATOM      4  C   UNL     1      19.775  13.675  19.467  0.00  0.00    +0.008 A 
ATOM      5  C   UNL     1      20.044  14.089  20.774  0.00  0.00    +0.057 A 
ATOM      6  C   UNL     1      19.817  13.352  21.965  0.00  0.00    +0.167 A 
ATOM      7  N   UNL     1      19.296  12.088  22.144  0.00  0.00    -0.210 NA
ATOM      8  C   UNL     1      19.179  11.599  23.392  0.00  0.00    +0.151 A 
ATOM      9  N   UNL     1      18.645  10.292  23.589  0.00  0.00    -0.218 NA
ATOM     10  C   UNL     1      18.531   9.401  22.480  0.00  0.00    +0.146 C 
ATOM     11  C   UNL     1      17.311   9.790  21.682  0.00  0.00    +0.166 C 
ATOM     12  O   UNL     1      17.668   9.652  20.308  0.00  0.00    -0.348 OA
ATOM     13  C   UNL     1      16.674  10.102  19.386  0.00  0.00    +0.189 C 
ATOM     14  C   UNL     1      17.408  10.222  18.075  0.00  0.00    +0.237 C 
ATOM     15  O   UNL     1      17.347  11.557  17.611  0.00  0.00    -0.473 OA
ATOM     16  C   UNL     1      18.452  12.410  17.886  0.00  0.00    +0.140 A 
ATOM     17  C   UNL     1      19.585  12.371  24.492  0.00  0.00    +0.057 A 
ATOM     18  C   UNL     1      20.101  13.644  24.281  0.00  0.00    +0.105 A 
ATOM     19  N   UNL     1      20.207  14.094  22.990  0.00  0.00    -0.211 N 
ATOM     20  N   UNL     1      20.666  15.315  22.530  0.00  0.00    -0.162 NA
ATOM     21  C   UNL     1      20.568  15.315  21.182  0.00  0.00    +0.124 A 
ATOM     22  C   UNL     1      18.708  12.810  19.192  0.00  0.00    +0.037 A 
ATOM     23  C   UNL     1      19.262  12.884  16.849  0.00  0.00    +0.048 A 
ENDROOT
TORSDOF 0
ENDMDL
MODEL 2
REMARK VINA RESULT:      -4.6     11.589     14.756
REMARK  Name = 5OY6_B4E.pdb
REMARK  0 active torsions:
REMARK  status: ('A' for Active; 'I' for Inactive)
REMARK                            x       y       z     vdW  Elec       q    Type
REMARK                         _______ _______ _______ _____ _____    ______ ____
ROOT
ATOM      1 CL   UNL     1      27.899  18.762  36.196  0.00  0.00    -0.082 Cl
ATOM      2  C   UNL     1      26.959  17.562  35.336  0.00  0.00    +0.061 A 
ATOM      3  C   UNL     1      27.188  17.405  33.979  0.00  0.00    +0.012 A 
ATOM      4  C   UNL     1      26.463  16.472  33.250  0.00  0.00    +0.008 A 
ATOM      5  C   UNL     1      26.715  16.329  31.883  0.00  0.00    +0.057 A 
ATOM      6  C   UNL     1      25.785  15.948  30.881  0.00  0.00    +0.167 A 
ATOM      7  N   UNL     1      24.446  15.633  30.982  0.00  0.00    -0.210 NA
ATOM      8  C   UNL     1      23.766  15.299  29.870  0.00  0.00    +0.151 A 
ATOM      9  N   UNL     1      22.381  14.975  29.962  0.00  0.00    -0.218 NA
ATOM     10  C   UNL     1      21.657  15.301  31.147  0.00  0.00    +0.146 C 
ATOM     11  C   UNL     1      21.978  14.269  32.199  0.00  0.00    +0.166 C 
ATOM     12  O   UNL     1      22.098  14.976  33.433  0.00  0.00    -0.348 OA
ATOM     13  C   UNL     1      22.529  14.179  34.537  0.00  0.00    +0.189 C 
ATOM     14  C   UNL     1      22.947  15.181  35.581  0.00  0.00    +0.237 C 
ATOM     15  O   UNL     1      24.313  15.001  35.903  0.00  0.00    -0.473 OA
ATOM     16  C   UNL     1      25.267  15.832  35.252  0.00  0.00    +0.140 A 
ATOM     17  C   UNL     1      24.418  15.273  28.627  0.00  0.00    +0.057 A 
ATOM     18  C   UNL     1      25.769  15.590  28.557  0.00  0.00    +0.105 A 
ATOM     19  N   UNL     1      26.416  15.931  29.717  0.00  0.00    -0.211 N 
ATOM     20  N   UNL     1      27.745  16.264  29.906  0.00  0.00    -0.162 NA
ATOM     21  C   UNL     1      27.930  16.506  31.223  0.00  0.00    +0.124 A 
ATOM     22  C   UNL     1      25.502  15.679  33.891  0.00  0.00    +0.037 A 
ATOM     23  C   UNL     1      26.001  16.776  35.977  0.00  0.00    +0.048 A 
ENDROOT
TORSDOF 0
ENDMDL
MODEL 3
REMARK VINA RESULT:      -4.6      3.535      6.373
REMARK  Name = 5OY6_B4E.pdb
REMARK  0 active torsions:
REMARK  status: ('A' for Active; 'I' for Inactive)
REMARK                            x       y       z     vdW  Elec       q    Type
REMARK                         _______ _______ _______ _____ _____    ______ ____
ROOT
ATOM      1 CL   UNL     1      23.282  11.875  26.838  0.00  0.00    -0.082 Cl
ATOM      2  C   UNL     1      21.902  12.113  25.788  0.00  0.00    +0.061 A 
ATOM      3  C   UNL     1      20.981  11.084  25.681  0.00  0.00    +0.012 A 
ATOM      4  C   UNL     1      19.872  11.220  24.855  0.00  0.00    +0.008 A 
ATOM      5  C   UNL     1      18.954  10.170  24.766  0.00  0.00    +0.057 A 
ATOM      6  C   UNL     1      18.162   9.825  23.640  0.00  0.00    +0.167 A 
ATOM      7  N   UNL     1      18.090  10.403  22.390  0.00  0.00    -0.210 NA
ATOM      8  C   UNL     1      17.249   9.885  21.477  0.00  0.00    +0.151 A 
ATOM      9  N   UNL     1      17.169  10.473  20.180  0.00  0.00    -0.218 NA
ATOM     10  C   UNL     1      18.178  11.388  19.756  0.00  0.00    +0.146 C 
ATOM     11  C   UNL     1      17.902  12.728  20.392  0.00  0.00    +0.166 C 
ATOM     12  O   UNL     1      19.169  13.261  20.772  0.00  0.00    -0.348 OA
ATOM     13  C   UNL     1      19.105  14.481  21.513  0.00  0.00    +0.189 C 
ATOM     14  C   UNL     1      20.478  14.625  22.117  0.00  0.00    +0.237 C 
ATOM     15  O   UNL     1      20.383  14.656  23.528  0.00  0.00    -0.473 OA
ATOM     16  C   UNL     1      20.601  13.441  24.237  0.00  0.00    +0.140 A 
ATOM     17  C   UNL     1      16.459   8.770  21.798  0.00  0.00    +0.057 A 
ATOM     18  C   UNL     1      16.550   8.212  23.068  0.00  0.00    +0.105 A 
ATOM     19  N   UNL     1      17.426   8.771  23.961  0.00  0.00    -0.211 N 
ATOM     20  N   UNL     1      17.679   8.412  25.272  0.00  0.00    -0.162 NA
ATOM     21  C   UNL     1      18.608   9.261  25.765  0.00  0.00    +0.124 A 
ATOM     22  C   UNL     1      19.680  12.406  24.134  0.00  0.00    +0.037 A 
ATOM     23  C   UNL     1      21.715  13.293  25.070  0.00  0.00    +0.048 A 
ENDROOT
TORSDOF 0
ENDMDL
MODEL 4
REMARK VINA RESULT:      -4.4      3.547      6.385
REMARK  Name = 5OY6_B4E.pdb
REMARK  0 active torsions:
REMARK  status: ('A' for Active; 'I' for Inactive)
REMARK                            x       y       z     vdW  Elec       q    Type
REMARK                         _______ _______ _______ _____ _____    ______ ____
ROOT
ATOM      1 CL   UNL     1      17.116   7.807  23.640  0.00  0.00    -0.082 Cl
ATOM      2  C   UNL     1      17.884   9.346  23.314  0.00  0.00    +0.061 A 
ATOM      3  C   UNL     1      17.747   9.886  22.046  0.00  0.00    +0.012 A 
ATOM      4  C   UNL     1      18.343  11.101  21.733  0.00  0.00    +0.008 A 
ATOM      5  C   UNL     1      18.188  11.628  20.449  0.00  0.00    +0.057 A 
ATOM      6  C   UNL     1      19.112  12.442  19.744  0.00  0.00    +0.167 A 
ATOM      7  N   UNL     1      20.354  12.910  20.120  0.00  0.00    -0.210 NA
ATOM      8  C   UNL     1      21.052  13.677  19.263  0.00  0.00    +0.151 A 
ATOM      9  N   UNL     1      22.338  14.162  19.640  0.00  0.00    -0.218 NA
ATOM     10  C   UNL     1      23.006  13.594  20.764  0.00  0.00    +0.146 C 
ATOM     11  C   UNL     1      22.406  14.180  22.019  0.00  0.00    +0.166 C 
ATOM     12  O   UNL     1      22.316  13.111  22.959  0.00  0.00    -0.348 OA
ATOM     13  C   UNL     1      21.649  13.443  24.177  0.00  0.00    +0.189 C 
ATOM     14  C   UNL     1      21.339  12.111  24.810  0.00  0.00    +0.237 C 
ATOM     15  O   UNL     1      19.942  11.970  24.976  0.00  0.00    -0.473 OA
ATOM     16  C   UNL     1      19.221  11.252  23.982  0.00  0.00    +0.140 A 
ATOM     17  C   UNL     1      20.516  13.994  18.004  0.00  0.00    +0.057 A 
ATOM     18  C   UNL     1      19.259  13.513  17.656  0.00  0.00    +0.105 A 
ATOM     19  N   UNL     1      18.591  12.729  18.561  0.00  0.00    -0.211 N 
ATOM     20  N   UNL     1      17.338  12.155  18.455  0.00  0.00    -0.162 NA
ATOM     21  C   UNL     1      17.089  11.484  19.602  0.00  0.00    +0.124 A 
ATOM     22  C   UNL     1      19.079  11.788  22.708  0.00  0.00    +0.037 A 
ATOM     23  C   UNL     1      18.618  10.027  24.285  0.00  0.00    +0.048 A 
ENDROOT
TORSDOF 0
ENDMDL
MODEL 5
REMARK VINA RESULT:      -4.4     12.728     15.601
REMARK  Name = 5OY6_B4E.pdb
REMARK  0 active torsions:
REMARK  status: ('A' for Active; 'I' for Inactive)
REMARK                            x       y       z     vdW  Elec       q    Type
REMARK                         _______ _______ _______ _____ _____    ______ ____
ROOT
ATOM      1 CL   UNL     1      23.881  14.852  28.729  0.00  0.00    -0.082 Cl
ATOM      2  C   UNL     1      25.288  15.561  29.493  0.00  0.00    +0.061 A 
ATOM      3  C   UNL     1      25.291  15.674  30.874  0.00  0.00    +0.012 A 
ATOM      4  C   UNL     1      26.380  16.236  31.528  0.00  0.00    +0.008 A 
ATOM      5  C   UNL     1      26.362  16.336  32.921  0.00  0.00    +0.057 A 
ATOM      6  C   UNL     1      26.989  17.333  33.712  0.00  0.00    +0.167 A 
ATOM      7  N   UNL     1      27.748  18.422  33.335  0.00  0.00    -0.210 NA
ATOM      8  C   UNL     1      28.241  19.237  34.285  0.00  0.00    +0.151 A 
ATOM      9  N   UNL     1      29.023  20.367  33.906  0.00  0.00    -0.218 NA
ATOM     10  C   UNL     1      29.023  20.803  32.548  0.00  0.00    +0.146 C 
ATOM     11  C   UNL     1      29.932  19.896  31.757  0.00  0.00    +0.166 C 
ATOM     12  O   UNL     1      29.288  19.674  30.504  0.00  0.00    -0.348 OA
ATOM     13  C   UNL     1      29.941  18.727  29.658  0.00  0.00    +0.189 C 
ATOM     14  C   UNL     1      28.907  18.380  28.617  0.00  0.00    +0.237 C 
ATOM     15  O   UNL     1      28.625  16.995  28.663  0.00  0.00    -0.473 OA
ATOM     16  C   UNL     1      27.487  16.571  29.404  0.00  0.00    +0.140 A 
ATOM     17  C   UNL     1      27.982  18.977  35.640  0.00  0.00    +0.057 A 
ATOM     18  C   UNL     1      27.218  17.870  35.989  0.00  0.00    +0.105 A 
ATOM     19  N   UNL     1      26.732  17.074  34.985  0.00  0.00    -0.211 N 
ATOM     20  N   UNL     1      25.974  15.922  35.078  0.00  0.00    -0.162 NA
ATOM     21  C   UNL     1      25.747  15.470  33.824  0.00  0.00    +0.124 A 
ATOM     22  C   UNL     1      27.484  16.681  30.789  0.00  0.00    +0.037 A 
ATOM     23  C   UNL     1      26.384  16.005  28.755  0.00  0.00    +0.048 A 
ENDROOT
TORSDOF 0
ENDMDL
MODEL 6
REMARK VINA RESULT:      -4.3     13.489     15.956
REMARK  Name = 5OY6_B4E.pdb
REMARK  0 active torsions:
REMARK  status: ('A' for Active; 'I' for Inactive)
REMARK                            x       y       z     vdW  Elec       q    Type
REMARK                         _______ _______ _______ _____ _____    ______ ____
ROOT
ATOM      1 CL   UNL     1      28.812  20.070  24.107  0.00  0.00    -0.082 Cl
ATOM      2  C   UNL     1      29.400  19.964  25.753  0.00  0.00    +0.061 A 
ATOM      3  C   UNL     1      28.749  19.107  26.624  0.00  0.00    +0.012 A 
ATOM      4  C   UNL     1      29.171  18.992  27.942  0.00  0.00    +0.008 A 
ATOM      5  C   UNL     1      28.500  18.118  28.800  0.00  0.00    +0.057 A 
ATOM      6  C   UNL     1      28.333  18.261  30.202  0.00  0.00    +0.167 A 
ATOM      7  N   UNL     1      28.766  19.257  31.053  0.00  0.00    -0.210 NA
ATOM      8  C   UNL     1      28.477  19.169  32.364  0.00  0.00    +0.151 A 
ATOM      9  N   UNL     1      28.916  20.194  33.252  0.00  0.00    -0.218 NA
ATOM     10  C   UNL     1      29.375  21.437  32.725  0.00  0.00    +0.146 C 
ATOM     11  C   UNL     1      30.787  21.249  32.227  0.00  0.00    +0.166 C 
ATOM     12  O   UNL     1      30.887  21.987  31.010  0.00  0.00    -0.348 OA
ATOM     13  C   UNL     1      32.124  21.826  30.316  0.00  0.00    +0.189 C 
ATOM     14  C   UNL     1      31.848  22.356  28.932  0.00  0.00    +0.237 C 
ATOM     15  O   UNL     1      32.058  21.336  27.975  0.00  0.00    -0.473 OA
ATOM     16  C   UNL     1      30.925  20.604  27.522  0.00  0.00    +0.140 A 
ATOM     17  C   UNL     1      27.744  18.075  32.852  0.00  0.00    +0.057 A 
ATOM     18  C   UNL     1      27.326  17.085  31.971  0.00  0.00    +0.105 A 
ATOM     19  N   UNL     1      27.639  17.224  30.644  0.00  0.00    -0.211 N 
ATOM     20  N   UNL     1      27.355  16.375  29.590  0.00  0.00    -0.162 NA
ATOM     21  C   UNL     1      27.878  16.916  28.467  0.00  0.00    +0.124 A 
ATOM     22  C   UNL     1      30.267  19.740  28.390  0.00  0.00    +0.037 A 
ATOM     23  C   UNL     1      30.490  20.712  26.197  0.00  0.00    +0.048 A 
ENDROOT
TORSDOF 0
ENDMDL
MODEL 7
REMARK VINA RESULT:      -4.2      3.260      5.612
REMARK  Name = 5OY6_B4E.pdb
REMARK  0 active torsions:
REMARK  status: ('A' for Active; 'I' for Inactive)
REMARK                            x       y       z     vdW  Elec       q    Type
REMARK                         _______ _______ _______ _____ _____    ______ ____
ROOT
ATOM      1 CL   UNL     1      18.896   9.911  27.886  0.00  0.00    -0.082 Cl
ATOM      2  C   UNL     1      18.993   9.937  26.138  0.00  0.00    +0.061 A 
ATOM      3  C   UNL     1      19.689  10.974  25.540  0.00  0.00    +0.012 A 
ATOM      4  C   UNL     1      19.789  11.045  24.156  0.00  0.00    +0.008 A 
ATOM      5  C   UNL     1      20.499  12.098  23.576  0.00  0.00    +0.057 A 
ATOM      6  C   UNL     1      20.249  12.702  22.316  0.00  0.00    +0.167 A 
ATOM      7  N   UNL     1      19.283  12.425  21.372  0.00  0.00    -0.210 NA
ATOM      8  C   UNL     1      19.249  13.149  20.238  0.00  0.00    +0.151 A 
ATOM      9  N   UNL     1      18.253  12.874  19.257  0.00  0.00    -0.218 NA
ATOM     10  C   UNL     1      17.127  12.068  19.600  0.00  0.00    +0.146 C 
ATOM     11  C   UNL     1      17.557  10.621  19.584  0.00  0.00    +0.166 C 
ATOM     12  O   UNL     1      16.915   9.999  20.696  0.00  0.00    -0.348 OA
ATOM     13  C   UNL     1      17.302   8.643  20.925  0.00  0.00    +0.189 C 
ATOM     14  C   UNL     1      16.819   8.347  22.322  0.00  0.00    +0.237 C 
ATOM     15  O   UNL     1      17.914   7.997  23.146  0.00  0.00    -0.473 OA
ATOM     16  C   UNL     1      18.490   9.014  23.957  0.00  0.00    +0.140 A 
ATOM     17  C   UNL     1      20.188  14.171  20.027  0.00  0.00    +0.057 A 
ATOM     18  C   UNL     1      21.153  14.424  20.994  0.00  0.00    +0.105 A 
ATOM     19  N   UNL     1      21.142  13.664  22.135  0.00  0.00    -0.211 N 
ATOM     20  N   UNL     1      21.998  13.711  23.220  0.00  0.00    -0.162 NA
ATOM     21  C   UNL     1      21.610  12.759  24.098  0.00  0.00    +0.124 A 
ATOM     22  C   UNL     1      19.191  10.057  23.363  0.00  0.00    +0.037 A 
ATOM     23  C   UNL     1      18.395   8.953  25.351  0.00  0.00    +0.048 A 
ENDROOT
TORSDOF 0
ENDMDL
MODEL 8
REMARK VINA RESULT:      -4.2     12.125     14.424
REMARK  Name = 5OY6_B4E.pdb
REMARK  0 active torsions:
REMARK  status: ('A' for Active; 'I' for Inactive)
REMARK                            x       y       z     vdW  Elec       q    Type
REMARK                         _______ _______ _______ _____ _____    ______ ____
ROOT
ATOM      1 CL   UNL     1      32.220  19.483  27.388  0.00  0.00    -0.082 Cl
ATOM      2  C   UNL     1      30.680  18.949  28.028  0.00  0.00    +0.061 A 
ATOM      3  C   UNL     1      30.371  19.277  29.338  0.00  0.00    +0.012 A 
ATOM      4  C   UNL     1      29.165  18.870  29.895  0.00  0.00    +0.008 A 
ATOM      5  C   UNL     1      28.873  19.216  31.217  0.00  0.00    +0.057 A 
ATOM      6  C   UNL     1      28.089  18.474  32.138  0.00  0.00    +0.167 A 
ATOM      7  N   UNL     1      27.436  17.269  31.984  0.00  0.00    -0.210 NA
ATOM      8  C   UNL     1      26.747  16.760  33.022  0.00  0.00    +0.151 A 
ATOM      9  N   UNL     1      26.072  15.513  32.875  0.00  0.00    -0.218 NA
ATOM     10  C   UNL     1      26.377  14.672  31.764  0.00  0.00    +0.146 C 
ATOM     11  C   UNL     1      25.663  15.212  30.549  0.00  0.00    +0.166 C 
ATOM     12  O   UNL     1      26.570  15.075  29.457  0.00  0.00    -0.348 OA
ATOM     13  C   UNL     1      26.118  15.655  28.232  0.00  0.00    +0.189 C 
ATOM     14  C   UNL     1      27.356  15.733  27.376  0.00  0.00    +0.237 C 
ATOM     15  O   UNL     1      27.617  17.079  27.028  0.00  0.00    -0.473 OA
ATOM     16  C   UNL     1      28.560  17.799  27.813  0.00  0.00    +0.140 A 
ATOM     17  C   UNL     1      26.697  17.453  34.242  0.00  0.00    +0.057 A 
ATOM     18  C   UNL     1      27.360  18.668  34.365  0.00  0.00    +0.105 A 
ATOM     19  N   UNL     1      28.055  19.141  33.282  0.00  0.00    -0.211 N 
ATOM     20  N   UNL     1      28.770  20.318  33.153  0.00  0.00    -0.162 NA
ATOM     21  C   UNL     1      29.269  20.366  31.898  0.00  0.00    +0.124 A 
ATOM     22  C   UNL     1      28.255  18.132  29.127  0.00  0.00    +0.037 A 
ATOM     23  C   UNL     1      29.777  18.212  27.262  0.00  0.00    +0.048 A 
ENDROOT
TORSDOF 0
ENDMDL
MODEL 9
REMARK VINA RESULT:      -4.2      3.551      6.755
REMARK  Name = 5OY6_B4E.pdb
REMARK  0 active torsions:
REMARK  status: ('A' for Active; 'I' for Inactive)
REMARK                            x       y       z     vdW  Elec       q    Type
REMARK                         _______ _______ _______ _____ _____    ______ ____
ROOT
ATOM      1 CL   UNL     1      20.391   8.213  26.135  0.00  0.00    -0.082 Cl
ATOM      2  C   UNL     1      19.970   9.560  25.099  0.00  0.00    +0.061 A 
ATOM      3  C   UNL     1      19.097   9.327  24.050  0.00  0.00    +0.012 A 
ATOM      4  C   UNL     1      18.738  10.361  23.194  0.00  0.00    +0.008 A 
ATOM      5  C   UNL     1      17.853  10.102  22.145  0.00  0.00    +0.057 A 
ATOM      6  C   UNL     1      17.817  10.748  20.882  0.00  0.00    +0.167 A 
ATOM      7  N   UNL     1      18.610  11.755  20.374  0.00  0.00    -0.210 NA
ATOM      8  C   UNL     1      18.376  12.207  19.129  0.00  0.00    +0.151 A 
ATOM      9  N   UNL     1      19.192  13.246  18.593  0.00  0.00    -0.218 NA
ATOM     10  C   UNL     1      20.421  13.581  19.234  0.00  0.00    +0.146 C 
ATOM     11  C   UNL     1      20.110  14.434  20.440  0.00  0.00    +0.166 C 
ATOM     12  O   UNL     1      20.992  14.005  21.475  0.00  0.00    -0.348 OA
ATOM     13  C   UNL     1      20.761  14.614  22.746  0.00  0.00    +0.189 C 
ATOM     14  C   UNL     1      21.516  13.747  23.720  0.00  0.00    +0.237 C 
ATOM     15  O   UNL     1      20.624  13.204  24.673  0.00  0.00    -0.473 OA
ATOM     16  C   UNL     1      20.130  11.888  24.451  0.00  0.00    +0.140 A 
ATOM     17  C   UNL     1      17.338  11.655  18.362  0.00  0.00    +0.057 A 
ATOM     18  C   UNL     1      16.553  10.644  18.902  0.00  0.00    +0.105 A 
ATOM     19  N   UNL     1      16.834  10.213  20.173  0.00  0.00    -0.211 N 
ATOM     20  N   UNL     1      16.193   9.246  20.925  0.00  0.00    -0.162 NA
ATOM     21  C   UNL     1      16.810   9.176  22.126  0.00  0.00    +0.124 A 
ATOM     22  C   UNL     1      19.253  11.647  23.400  0.00  0.00    +0.037 A 
ATOM     23  C   UNL     1      20.487  10.839  25.305  0.00  0.00    +0.048 A 
ENDROOT
TORSDOF 0
ENDMDL
