MODEL 1
REMARK VINA RESULT:      -7.9      0.000      0.000
REMARK  Name = 6GIN_IR2.pdb
REMARK  3 active torsions:
REMARK  status: ('A' for Active; 'I' for Inactive)
REMARK    1  A    between atoms: _6  and  _7
REMARK    2  A    between atoms: _10  and  _13
REMARK    3  A    between atoms: _19  and  _24
REMARK                            x       y       z     vdW  Elec       q    Type
REMARK                         _______ _______ _______ _____ _____    ______ ____
ROOT
ATOM      1  N   UNL     1      10.890  15.428  26.966  0.00  0.00    -0.257 N 
ATOM      2  C   UNL     1      12.008  15.959  27.591  0.00  0.00    +0.267 A 
ATOM      3  O   UNL     1      12.429  17.051  27.234  0.00  0.00    -0.267 OA
ATOM      4  C   UNL     1      12.642  15.139  28.684  0.00  0.00    +0.074 A 
ATOM      5  C   UNL     1      13.789  15.603  29.355  0.00  0.00    +0.006 A 
ATOM      6  C   UNL     1      14.393  14.838  30.364  0.00  0.00    +0.000 A 
ATOM      7  C   UNL     1      13.837  13.600  30.736  0.00  0.00    +0.002 A 
ATOM      8  C   UNL     1      12.706  13.122  30.092  0.00  0.00    +0.019 A 
ATOM      9  C   UNL     1      12.128  13.932  29.063  0.00  0.00    +0.088 A 
ATOM     10  N   UNL     1      10.979  13.412  28.414  0.00  0.00    -0.225 NA
ATOM     11  C   UNL     1      10.376  14.187  27.385  0.00  0.00    +0.185 A 
ENDROOT
BRANCH   6  12
ATOM     12  C   UNL     1      15.525  15.312  31.046  0.00  0.00    +0.003 A 
ATOM     13  C   UNL     1      15.493  16.508  31.881  0.00  0.00    +0.018 A 
ATOM     14  C   UNL     1      14.320  17.312  32.080  0.00  0.00    +0.001 A 
ATOM     15  C   UNL     1      14.295  18.482  32.865  0.00  0.00    +0.000 A 
ATOM     16  C   UNL     1      15.485  18.858  33.491  0.00  0.00    +0.002 A 
ATOM     17  C   UNL     1      16.629  18.071  33.344  0.00  0.00    +0.019 A 
ATOM     18  C   UNL     1      16.636  16.891  32.522  0.00  0.00    +0.081 A 
ATOM     19  N   UNL     1      17.798  16.132  32.378  0.00  0.00    -0.244 NA
ATOM     20  C   UNL     1      17.864  15.009  31.634  0.00  0.00    +0.099 A 
ATOM     21  C   UNL     1      16.701  14.585  30.957  0.00  0.00    +0.021 A 
ENDBRANCH   6  12
BRANCH   1  25
ATOM     22  C   UNL     1       8.519  17.154  23.971  0.00  0.00    +0.048 A 
ATOM     23  C   UNL     1       8.174  17.330  25.309  0.00  0.00    +0.016 A 
ATOM     24  C   UNL     1       8.964  16.769  26.305  0.00  0.00    +0.019 A 
ATOM     25  C   UNL     1      10.127  16.076  25.970  0.00  0.00    +0.068 A 
ATOM     26  C   UNL     1      10.446  15.859  24.639  0.00  0.00    +0.019 A 
ATOM     27  C   UNL     1       9.649  16.403  23.643  0.00  0.00    +0.016 A 
BRANCH  22  29
ATOM     28  C   UNL     1       6.818  16.811  22.259  0.00  0.00    +0.123 C 
ATOM     29  N   UNL     1       7.711  17.694  22.909  0.00  0.00    -0.303 N 
ATOM     30  C   UNL     1       8.317  18.676  22.095  0.00  0.00    +0.123 C 
ATOM     31  C   UNL     1       8.461  18.275  20.641  0.00  0.00    +0.164 C 
ATOM     32  O   UNL     1       8.417  16.872  20.413  0.00  0.00    -0.350 OA
ATOM     33  C   UNL     1       7.251  16.259  20.908  0.00  0.00    +0.164 C 
ENDBRANCH  22  29
ENDBRANCH   1  25
TORSDOF 3
ENDMDL
MODEL 2
REMARK VINA RESULT:      -7.9      3.877     12.370
REMARK  Name = 6GIN_IR2.pdb
REMARK  3 active torsions:
REMARK  status: ('A' for Active; 'I' for Inactive)
REMARK    1  A    between atoms: _6  and  _7
REMARK    2  A    between atoms: _10  and  _13
REMARK    3  A    between atoms: _19  and  _24
REMARK                            x       y       z     vdW  Elec       q    Type
REMARK                         _______ _______ _______ _____ _____    ______ ____
ROOT
ATOM      1  N   UNL     1       7.876  16.647  23.586  0.00  0.00    -0.257 N 
ATOM      2  C   UNL     1       7.965  15.541  22.754  0.00  0.00    +0.267 A 
ATOM      3  O   UNL     1       8.992  14.877  22.751  0.00  0.00    -0.267 OA
ATOM      4  C   UNL     1       6.770  15.229  21.892  0.00  0.00    +0.074 A 
ATOM      5  C   UNL     1       6.788  14.132  21.009  0.00  0.00    +0.006 A 
ATOM      6  C   UNL     1       5.684  13.845  20.193  0.00  0.00    +0.000 A 
ATOM      7  C   UNL     1       4.527  14.642  20.269  0.00  0.00    +0.002 A 
ATOM      8  C   UNL     1       4.482  15.725  21.132  0.00  0.00    +0.019 A 
ATOM      9  C   UNL     1       5.635  15.988  21.940  0.00  0.00    +0.088 A 
ATOM     10  N   UNL     1       5.565  17.109  22.805  0.00  0.00    -0.225 NA
ATOM     11  C   UNL     1       6.690  17.402  23.623  0.00  0.00    +0.185 A 
ENDROOT
BRANCH   6  12
ATOM     12  C   UNL     1       5.698  12.739  19.329  0.00  0.00    +0.003 A 
ATOM     13  C   UNL     1       5.521  12.869  17.887  0.00  0.00    +0.018 A 
ATOM     14  C   UNL     1       5.310  14.122  17.218  0.00  0.00    +0.001 A 
ATOM     15  C   UNL     1       5.113  14.247  15.828  0.00  0.00    +0.000 A 
ATOM     16  C   UNL     1       5.141  13.074  15.071  0.00  0.00    +0.002 A 
ATOM     17  C   UNL     1       5.383  11.847  15.694  0.00  0.00    +0.019 A 
ATOM     18  C   UNL     1       5.563  11.743  17.116  0.00  0.00    +0.081 A 
ATOM     19  N   UNL     1       5.786  10.502  17.715  0.00  0.00    -0.244 NA
ATOM     20  C   UNL     1       5.976  10.341  19.040  0.00  0.00    +0.099 A 
ATOM     21  C   UNL     1       5.938  11.484  19.866  0.00  0.00    +0.021 A 
ENDBRANCH   6  12
BRANCH   1  25
ATOM     22  C   UNL     1      10.674  18.031  26.383  0.00  0.00    +0.048 A 
ATOM     23  C   UNL     1       9.841  16.964  26.713  0.00  0.00    +0.016 A 
ATOM     24  C   UNL     1       8.922  16.495  25.784  0.00  0.00    +0.019 A 
ATOM     25  C   UNL     1       8.865  17.055  24.508  0.00  0.00    +0.068 A 
ATOM     26  C   UNL     1       9.658  18.147  24.194  0.00  0.00    +0.019 A 
ATOM     27  C   UNL     1      10.566  18.629  25.126  0.00  0.00    +0.016 A 
BRANCH  22  29
ATOM     28  C   UNL     1      12.903  18.911  26.837  0.00  0.00    +0.123 C 
ATOM     29  N   UNL     1      11.621  18.566  27.327  0.00  0.00    -0.303 N 
ATOM     30  C   UNL     1      11.576  18.032  28.633  0.00  0.00    +0.123 C 
ATOM     31  C   UNL     1      12.843  17.315  29.054  0.00  0.00    +0.164 C 
ATOM     32  O   UNL     1      13.659  16.884  27.972  0.00  0.00    -0.350 OA
ATOM     33  C   UNL     1      14.032  17.924  27.099  0.00  0.00    +0.164 C 
ENDBRANCH  22  29
ENDBRANCH   1  25
TORSDOF 3
ENDMDL
MODEL 3
REMARK VINA RESULT:      -7.8      4.595     13.230
REMARK  Name = 6GIN_IR2.pdb
REMARK  3 active torsions:
REMARK  status: ('A' for Active; 'I' for Inactive)
REMARK    1  A    between atoms: _6  and  _7
REMARK    2  A    between atoms: _10  and  _13
REMARK    3  A    between atoms: _19  and  _24
REMARK                            x       y       z     vdW  Elec       q    Type
REMARK                         _______ _______ _______ _____ _____    ______ ____
ROOT
ATOM      1  N   UNL     1       6.966  15.234  22.017  0.00  0.00    -0.257 N 
ATOM      2  C   UNL     1       7.031  15.529  20.664  0.00  0.00    +0.267 A 
ATOM      3  O   UNL     1       7.726  16.463  20.289  0.00  0.00    -0.267 OA
ATOM      4  C   UNL     1       6.225  14.664  19.731  0.00  0.00    +0.074 A 
ATOM      5  C   UNL     1       6.226  14.910  18.344  0.00  0.00    +0.006 A 
ATOM      6  C   UNL     1       5.466  14.118  17.471  0.00  0.00    +0.000 A 
ATOM      7  C   UNL     1       4.708  13.045  17.974  0.00  0.00    +0.002 A 
ATOM      8  C   UNL     1       4.692  12.781  19.335  0.00  0.00    +0.019 A 
ATOM      9  C   UNL     1       5.475  13.619  20.190  0.00  0.00    +0.088 A 
ATOM     10  N   UNL     1       5.430  13.332  21.579  0.00  0.00    -0.225 NA
ATOM     11  C   UNL     1       6.195  14.144  22.461  0.00  0.00    +0.185 A 
ENDROOT
BRANCH   6  12
ATOM     12  C   UNL     1       5.486  14.353  16.087  0.00  0.00    +0.003 A 
ATOM     13  C   UNL     1       6.016  15.581  15.507  0.00  0.00    +0.018 A 
ATOM     14  C   UNL     1       6.557  16.662  16.283  0.00  0.00    +0.001 A 
ATOM     15  C   UNL     1       7.046  17.860  15.726  0.00  0.00    +0.000 A 
ATOM     16  C   UNL     1       7.008  17.982  14.336  0.00  0.00    +0.002 A 
ATOM     17  C   UNL     1       6.522  16.928  13.557  0.00  0.00    +0.019 A 
ATOM     18  C   UNL     1       6.011  15.722  14.149  0.00  0.00    +0.081 A 
ATOM     19  N   UNL     1       5.516  14.692  13.349  0.00  0.00    -0.244 NA
ATOM     20  C   UNL     1       5.037  13.532  13.843  0.00  0.00    +0.099 A 
ATOM     21  C   UNL     1       5.027  13.354  15.242  0.00  0.00    +0.021 A 
ENDBRANCH   6  12
BRANCH   1  25
ATOM     22  C   UNL     1       9.254  17.289  24.865  0.00  0.00    +0.048 A 
ATOM     23  C   UNL     1       7.958  17.717  24.585  0.00  0.00    +0.016 A 
ATOM     24  C   UNL     1       7.193  17.030  23.651  0.00  0.00    +0.019 A 
ATOM     25  C   UNL     1       7.699  15.889  23.031  0.00  0.00    +0.068 A 
ATOM     26  C   UNL     1       9.004  15.490  23.272  0.00  0.00    +0.019 A 
ATOM     27  C   UNL     1       9.778  16.184  24.191  0.00  0.00    +0.016 A 
BRANCH  22  29
ATOM     28  C   UNL     1      11.185  18.719  25.283  0.00  0.00    +0.123 C 
ATOM     29  N   UNL     1      10.091  17.990  25.804  0.00  0.00    -0.303 N 
ATOM     30  C   UNL     1      10.300  17.359  27.050  0.00  0.00    +0.123 C 
ATOM     31  C   UNL     1      11.745  16.995  27.327  0.00  0.00    +0.164 C 
ATOM     32  O   UNL     1      12.557  16.900  26.163  0.00  0.00    -0.350 OA
ATOM     33  C   UNL     1      12.558  18.071  25.381  0.00  0.00    +0.164 C 
ENDBRANCH  22  29
ENDBRANCH   1  25
TORSDOF 3
ENDMDL
MODEL 4
REMARK VINA RESULT:      -7.8      4.382      7.809
REMARK  Name = 6GIN_IR2.pdb
REMARK  3 active torsions:
REMARK  status: ('A' for Active; 'I' for Inactive)
REMARK    1  A    between atoms: _6  and  _7
REMARK    2  A    between atoms: _10  and  _13
REMARK    3  A    between atoms: _19  and  _24
REMARK                            x       y       z     vdW  Elec       q    Type
REMARK                         _______ _______ _______ _____ _____    ______ ____
ROOT
ATOM      1  N   UNL     1       6.779  15.142  21.487  0.00  0.00    -0.257 N 
ATOM      2  C   UNL     1       7.529  14.479  22.446  0.00  0.00    +0.267 A 
ATOM      3  O   UNL     1       7.812  13.302  22.273  0.00  0.00    -0.267 OA
ATOM      4  C   UNL     1       7.951  15.267  23.658  0.00  0.00    +0.074 A 
ATOM      5  C   UNL     1       8.702  14.660  24.683  0.00  0.00    +0.006 A 
ATOM      6  C   UNL     1       9.085  15.384  25.821  0.00  0.00    +0.000 A 
ATOM      7  C   UNL     1       8.743  16.744  25.938  0.00  0.00    +0.002 A 
ATOM      8  C   UNL     1       8.007  17.366  24.942  0.00  0.00    +0.019 A 
ATOM      9  C   UNL     1       7.629  16.587  23.802  0.00  0.00    +0.088 A 
ATOM     10  N   UNL     1       6.867  17.246  22.804  0.00  0.00    -0.225 NA
ATOM     11  C   UNL     1       6.472  16.505  21.656  0.00  0.00    +0.185 A 
ENDROOT
BRANCH   6  12
ATOM     12  C   UNL     1       9.851  14.782  26.832  0.00  0.00    +0.003 A 
ATOM     13  C   UNL     1       9.248  14.090  27.965  0.00  0.00    +0.018 A 
ATOM     14  C   UNL     1       7.831  13.963  28.161  0.00  0.00    +0.001 A 
ATOM     15  C   UNL     1       7.246  13.317  29.269  0.00  0.00    +0.000 A 
ATOM     16  C   UNL     1       8.110  12.761  30.214  0.00  0.00    +0.002 A 
ATOM     17  C   UNL     1       9.492  12.837  30.025  0.00  0.00    +0.019 A 
ATOM     18  C   UNL     1      10.066  13.518  28.896  0.00  0.00    +0.081 A 
ATOM     19  N   UNL     1      11.450  13.594  28.741  0.00  0.00    -0.244 NA
ATOM     20  C   UNL     1      12.048  14.205  27.698  0.00  0.00    +0.099 A 
ATOM     21  C   UNL     1      11.232  14.807  26.718  0.00  0.00    +0.021 A 
ENDBRANCH   6  12
BRANCH   1  25
ATOM     22  C   UNL     1       5.358  13.673  17.828  0.00  0.00    +0.048 A 
ATOM     23  C   UNL     1       6.537  14.413  17.861  0.00  0.00    +0.016 A 
ATOM     24  C   UNL     1       7.017  14.892  19.073  0.00  0.00    +0.019 A 
ATOM     25  C   UNL     1       6.350  14.590  20.260  0.00  0.00    +0.068 A 
ATOM     26  C   UNL     1       5.152  13.895  20.225  0.00  0.00    +0.019 A 
ATOM     27  C   UNL     1       4.661  13.431  19.013  0.00  0.00    +0.016 A 
BRANCH  22  29
ATOM     28  C   UNL     1       5.064  11.832  16.255  0.00  0.00    +0.123 C 
ATOM     29  N   UNL     1       4.811  13.184  16.589  0.00  0.00    -0.303 N 
ATOM     30  C   UNL     1       4.781  14.096  15.512  0.00  0.00    +0.123 C 
ATOM     31  C   UNL     1       5.626  13.681  14.324  0.00  0.00    +0.164 C 
ATOM     32  O   UNL     1       6.647  12.741  14.631  0.00  0.00    -0.350 OA
ATOM     33  C   UNL     1       6.165  11.566  15.238  0.00  0.00    +0.164 C 
ENDBRANCH  22  29
ENDBRANCH   1  25
TORSDOF 3
ENDMDL
MODEL 5
REMARK VINA RESULT:      -7.8      1.251      2.388
REMARK  Name = 6GIN_IR2.pdb
REMARK  3 active torsions:
REMARK  status: ('A' for Active; 'I' for Inactive)
REMARK    1  A    between atoms: _6  and  _7
REMARK    2  A    between atoms: _10  and  _13
REMARK    3  A    between atoms: _19  and  _24
REMARK                            x       y       z     vdW  Elec       q    Type
REMARK                         _______ _______ _______ _____ _____    ______ ____
ROOT
ATOM      1  N   UNL     1      10.278  15.291  26.059  0.00  0.00    -0.257 N 
ATOM      2  C   UNL     1      11.271  15.957  26.761  0.00  0.00    +0.267 A 
ATOM      3  O   UNL     1      11.633  17.061  26.380  0.00  0.00    -0.267 OA
ATOM      4  C   UNL     1      11.848  15.262  27.966  0.00  0.00    +0.074 A 
ATOM      5  C   UNL     1      12.871  15.867  28.722  0.00  0.00    +0.006 A 
ATOM      6  C   UNL     1      13.423  15.219  29.837  0.00  0.00    +0.000 A 
ATOM      7  C   UNL     1      12.937  13.958  30.229  0.00  0.00    +0.002 A 
ATOM      8  C   UNL     1      11.930  13.342  29.503  0.00  0.00    +0.019 A 
ATOM      9  C   UNL     1      11.401  14.035  28.368  0.00  0.00    +0.088 A 
ATOM     10  N   UNL     1      10.379  13.377  27.638  0.00  0.00    -0.225 NA
ATOM     11  C   UNL     1       9.829  14.034  26.503  0.00  0.00    +0.185 A 
ENDROOT
BRANCH   6  12
ATOM     12  C   UNL     1      14.428  15.833  30.601  0.00  0.00    +0.003 A 
ATOM     13  C   UNL     1      15.727  15.211  30.833  0.00  0.00    +0.018 A 
ATOM     14  C   UNL     1      16.099  13.923  30.316  0.00  0.00    +0.001 A 
ATOM     15  C   UNL     1      17.344  13.309  30.561  0.00  0.00    +0.000 A 
ATOM     16  C   UNL     1      18.262  14.014  31.341  0.00  0.00    +0.002 A 
ATOM     17  C   UNL     1      17.937  15.286  31.822  0.00  0.00    +0.019 A 
ATOM     18  C   UNL     1      16.654  15.884  31.575  0.00  0.00    +0.081 A 
ATOM     19  N   UNL     1      16.349  17.147  32.082  0.00  0.00    -0.244 NA
ATOM     20  C   UNL     1      15.170  17.767  31.873  0.00  0.00    +0.099 A 
ATOM     21  C   UNL     1      14.189  17.100  31.110  0.00  0.00    +0.021 A 
ENDBRANCH   6  12
BRANCH   1  25
ATOM     22  C   UNL     1       8.081  16.632  22.751  0.00  0.00    +0.048 A 
ATOM     23  C   UNL     1       7.712  17.036  24.032  0.00  0.00    +0.016 A 
ATOM     24  C   UNL     1       8.445  16.603  25.130  0.00  0.00    +0.019 A 
ATOM     25  C   UNL     1       9.577  15.809  24.949  0.00  0.00    +0.068 A 
ATOM     26  C   UNL     1       9.918  15.367  23.680  0.00  0.00    +0.019 A 
ATOM     27  C   UNL     1       9.177  15.783  22.584  0.00  0.00    +0.016 A 
BRANCH  22  29
ATOM     28  C   UNL     1       6.100  16.380  21.352  0.00  0.00    +0.123 C 
ATOM     29  N   UNL     1       7.331  17.035  21.590  0.00  0.00    -0.303 N 
ATOM     30  C   UNL     1       8.082  17.383  20.447  0.00  0.00    +0.123 C 
ATOM     31  C   UNL     1       7.839  16.487  19.248  0.00  0.00    +0.164 C 
ATOM     32  O   UNL     1       7.296  15.213  19.571  0.00  0.00    -0.350 OA
ATOM     33  C   UNL     1       6.093  15.282  20.298  0.00  0.00    +0.164 C 
ENDBRANCH  22  29
ENDBRANCH   1  25
TORSDOF 3
ENDMDL
MODEL 6
REMARK VINA RESULT:      -7.7      2.953      4.534
REMARK  Name = 6GIN_IR2.pdb
REMARK  3 active torsions:
REMARK  status: ('A' for Active; 'I' for Inactive)
REMARK    1  A    between atoms: _6  and  _7
REMARK    2  A    between atoms: _10  and  _13
REMARK    3  A    between atoms: _19  and  _24
REMARK                            x       y       z     vdW  Elec       q    Type
REMARK                         _______ _______ _______ _____ _____    ______ ____
ROOT
ATOM      1  N   UNL     1       9.698  16.725  24.885  0.00  0.00    -0.257 N 
ATOM      2  C   UNL     1      10.149  15.644  25.628  0.00  0.00    +0.267 A 
ATOM      3  O   UNL     1       9.847  14.512  25.278  0.00  0.00    -0.267 OA
ATOM      4  C   UNL     1      10.994  15.944  26.838  0.00  0.00    +0.074 A 
ATOM      5  C   UNL     1      11.477  14.901  27.652  0.00  0.00    +0.006 A 
ATOM      6  C   UNL     1      12.252  15.174  28.789  0.00  0.00    +0.000 A 
ATOM      7  C   UNL     1      12.579  16.504  29.114  0.00  0.00    +0.002 A 
ATOM      8  C   UNL     1      12.119  17.548  28.327  0.00  0.00    +0.019 A 
ATOM      9  C   UNL     1      11.324  17.225  27.182  0.00  0.00    +0.088 A 
ATOM     10  N   UNL     1      10.857  18.313  26.402  0.00  0.00    -0.225 NA
ATOM     11  C   UNL     1      10.064  18.032  25.256  0.00  0.00    +0.185 A 
ENDROOT
BRANCH   6  12
ATOM     12  C   UNL     1      12.749  14.132  29.587  0.00  0.00    +0.003 A 
ATOM     13  C   UNL     1      11.877  13.184  30.270  0.00  0.00    +0.018 A 
ATOM     14  C   UNL     1      10.443  13.226  30.202  0.00  0.00    +0.001 A 
ATOM     15  C   UNL     1       9.598  12.326  30.882  0.00  0.00    +0.000 A 
ATOM     16  C   UNL     1      10.207  11.334  31.652  0.00  0.00    +0.002 A 
ATOM     17  C   UNL     1      11.601  11.249  31.703  0.00  0.00    +0.019 A 
ATOM     18  C   UNL     1      12.443  12.190  31.015  0.00  0.00    +0.081 A 
ATOM     19  N   UNL     1      13.832  12.093  31.098  0.00  0.00    -0.244 NA
ATOM     20  C   UNL     1      14.674  12.935  30.464  0.00  0.00    +0.099 A 
ATOM     21  C   UNL     1      14.123  13.974  29.686  0.00  0.00    +0.021 A 
ENDBRANCH   6  12
BRANCH   1  25
ATOM     22  C   UNL     1       7.455  16.693  21.344  0.00  0.00    +0.048 A 
ATOM     23  C   UNL     1       8.847  16.673  21.278  0.00  0.00    +0.016 A 
ATOM     24  C   UNL     1       9.593  16.672  22.449  0.00  0.00    +0.019 A 
ATOM     25  C   UNL     1       8.954  16.639  23.688  0.00  0.00    +0.068 A 
ATOM     26  C   UNL     1       7.572  16.706  23.757  0.00  0.00    +0.019 A 
ATOM     27  C   UNL     1       6.824  16.726  22.589  0.00  0.00    +0.016 A 
BRANCH  22  29
ATOM     28  C   UNL     1       5.800  15.616  19.913  0.00  0.00    +0.123 C 
ATOM     29  N   UNL     1       6.646  16.724  20.154  0.00  0.00    -0.303 N 
ATOM     30  C   UNL     1       7.226  17.324  19.015  0.00  0.00    +0.123 C 
ATOM     31  C   UNL     1       7.412  16.381  17.844  0.00  0.00    +0.164 C 
ATOM     32  O   UNL     1       7.429  15.003  18.199  0.00  0.00    -0.350 OA
ATOM     33  C   UNL     1       6.280  14.589  18.898  0.00  0.00    +0.164 C 
ENDBRANCH  22  29
ENDBRANCH   1  25
TORSDOF 3
ENDMDL
MODEL 7
REMARK VINA RESULT:      -7.6      4.365     11.961
REMARK  Name = 6GIN_IR2.pdb
REMARK  3 active torsions:
REMARK  status: ('A' for Active; 'I' for Inactive)
REMARK    1  A    between atoms: _6  and  _7
REMARK    2  A    between atoms: _10  and  _13
REMARK    3  A    between atoms: _19  and  _24
REMARK                            x       y       z     vdW  Elec       q    Type
REMARK                         _______ _______ _______ _____ _____    ______ ____
ROOT
ATOM      1  N   UNL     1       7.834  16.400  23.918  0.00  0.00    -0.257 N 
ATOM      2  C   UNL     1       7.639  15.118  23.427  0.00  0.00    +0.267 A 
ATOM      3  O   UNL     1       8.382  14.218  23.794  0.00  0.00    -0.267 OA
ATOM      4  C   UNL     1       6.505  14.917  22.455  0.00  0.00    +0.074 A 
ATOM      5  C   UNL     1       6.252  13.648  21.900  0.00  0.00    +0.006 A 
ATOM      6  C   UNL     1       5.208  13.457  20.983  0.00  0.00    +0.000 A 
ATOM      7  C   UNL     1       4.379  14.537  20.626  0.00  0.00    +0.002 A 
ATOM      8  C   UNL     1       4.606  15.796  21.161  0.00  0.00    +0.019 A 
ATOM      9  C   UNL     1       5.688  15.948  22.086  0.00  0.00    +0.088 A 
ATOM     10  N   UNL     1       5.903  17.248  22.608  0.00  0.00    -0.225 NA
ATOM     11  C   UNL     1       6.969  17.439  23.529  0.00  0.00    +0.185 A 
ENDROOT
BRANCH   6  12
ATOM     12  C   UNL     1       4.945  12.187  20.447  0.00  0.00    +0.003 A 
ATOM     13  C   UNL     1       3.953  11.284  21.019  0.00  0.00    +0.018 A 
ATOM     14  C   UNL     1       3.163  11.597  22.177  0.00  0.00    +0.001 A 
ATOM     15  C   UNL     1       2.222  10.716  22.747  0.00  0.00    +0.000 A 
ATOM     16  C   UNL     1       2.051   9.476  22.129  0.00  0.00    +0.002 A 
ATOM     17  C   UNL     1       2.780   9.164  20.979  0.00  0.00    +0.019 A 
ATOM     18  C   UNL     1       3.748  10.072  20.426  0.00  0.00    +0.081 A 
ATOM     19  N   UNL     1       4.475   9.728  19.286  0.00  0.00    -0.244 NA
ATOM     20  C   UNL     1       5.385  10.542  18.713  0.00  0.00    +0.099 A 
ATOM     21  C   UNL     1       5.622  11.802  19.300  0.00  0.00    +0.021 A 
ENDBRANCH   6  12
BRANCH   1  25
ATOM     22  C   UNL     1      10.635  17.702  26.751  0.00  0.00    +0.048 A 
ATOM     23  C   UNL     1       9.420  17.173  27.178  0.00  0.00    +0.016 A 
ATOM     24  C   UNL     1       8.494  16.729  26.242  0.00  0.00    +0.019 A 
ATOM     25  C   UNL     1       8.799  16.766  24.882  0.00  0.00    +0.068 A 
ATOM     26  C   UNL     1       9.987  17.335  24.453  0.00  0.00    +0.019 A 
ATOM     27  C   UNL     1      10.906  17.796  25.384  0.00  0.00    +0.016 A 
BRANCH  22  29
ATOM     28  C   UNL     1      12.713  18.911  27.160  0.00  0.00    +0.123 C 
ATOM     29  N   UNL     1      11.610  18.200  27.687  0.00  0.00    -0.303 N 
ATOM     30  C   UNL     1      11.871  17.388  28.812  0.00  0.00    +0.123 C 
ATOM     31  C   UNL     1      13.297  16.881  28.894  0.00  0.00    +0.164 C 
ATOM     32  O   UNL     1      13.992  16.889  27.654  0.00  0.00    -0.350 OA
ATOM     33  C   UNL     1      14.028  18.153  27.036  0.00  0.00    +0.164 C 
ENDBRANCH  22  29
ENDBRANCH   1  25
TORSDOF 3
ENDMDL
MODEL 8
REMARK VINA RESULT:      -7.5      2.111      3.547
REMARK  Name = 6GIN_IR2.pdb
REMARK  3 active torsions:
REMARK  status: ('A' for Active; 'I' for Inactive)
REMARK    1  A    between atoms: _6  and  _7
REMARK    2  A    between atoms: _10  and  _13
REMARK    3  A    between atoms: _19  and  _24
REMARK                            x       y       z     vdW  Elec       q    Type
REMARK                         _______ _______ _______ _____ _____    ______ ____
ROOT
ATOM      1  N   UNL     1       9.854  17.101  24.923  0.00  0.00    -0.257 N 
ATOM      2  C   UNL     1      10.449  16.176  25.768  0.00  0.00    +0.267 A 
ATOM      3  O   UNL     1      10.077  15.012  25.734  0.00  0.00    -0.267 OA
ATOM      4  C   UNL     1      11.530  16.679  26.689  0.00  0.00    +0.074 A 
ATOM      5  C   UNL     1      12.171  15.804  27.587  0.00  0.00    +0.006 A 
ATOM      6  C   UNL     1      13.168  16.268  28.457  0.00  0.00    +0.000 A 
ATOM      7  C   UNL     1      13.559  17.619  28.422  0.00  0.00    +0.002 A 
ATOM      8  C   UNL     1      12.946  18.500  27.545  0.00  0.00    +0.019 A 
ATOM      9  C   UNL     1      11.927  17.986  26.681  0.00  0.00    +0.088 A 
ATOM     10  N   UNL     1      11.309  18.912  25.803  0.00  0.00    -0.225 NA
ATOM     11  C   UNL     1      10.292  18.438  24.929  0.00  0.00    +0.185 A 
ENDROOT
BRANCH   6  12
ATOM     12  C   UNL     1      13.820  15.390  29.338  0.00  0.00    +0.003 A 
ATOM     13  C   UNL     1      14.570  15.857  30.498  0.00  0.00    +0.018 A 
ATOM     14  C   UNL     1      14.722  17.242  30.846  0.00  0.00    +0.001 A 
ATOM     15  C   UNL     1      15.469  17.696  31.952  0.00  0.00    +0.000 A 
ATOM     16  C   UNL     1      16.078  16.728  32.753  0.00  0.00    +0.002 A 
ATOM     17  C   UNL     1      15.912  15.373  32.457  0.00  0.00    +0.019 A 
ATOM     18  C   UNL     1      15.161  14.934  31.312  0.00  0.00    +0.081 A 
ATOM     19  N   UNL     1      15.026  13.575  31.030  0.00  0.00    -0.244 NA
ATOM     20  C   UNL     1      14.323  13.100  29.981  0.00  0.00    +0.099 A 
ATOM     21  C   UNL     1      13.700  14.026  29.119  0.00  0.00    +0.021 A 
ENDBRANCH   6  12
BRANCH   1  25
ATOM     22  C   UNL     1       6.979  16.432  21.948  0.00  0.00    +0.048 A 
ATOM     23  C   UNL     1       8.264  15.918  21.791  0.00  0.00    +0.016 A 
ATOM     24  C   UNL     1       9.216  16.128  22.781  0.00  0.00    +0.019 A 
ATOM     25  C   UNL     1       8.875  16.806  23.950  0.00  0.00    +0.068 A 
ATOM     26  C   UNL     1       7.612  17.359  24.087  0.00  0.00    +0.019 A 
ATOM     27  C   UNL     1       6.664  17.166  23.092  0.00  0.00    +0.016 A 
BRANCH  22  29
ATOM     28  C   UNL     1       4.742  15.684  21.327  0.00  0.00    +0.123 C 
ATOM     29  N   UNL     1       5.972  16.262  20.933  0.00  0.00    -0.303 N 
ATOM     30  C   UNL     1       6.432  15.925  19.642  0.00  0.00    +0.123 C 
ATOM     31  C   UNL     1       5.955  14.575  19.146  0.00  0.00    +0.164 C 
ATOM     32  O   UNL     1       5.544  13.685  20.176  0.00  0.00    -0.350 OA
ATOM     33  C   UNL     1       4.535  14.211  21.004  0.00  0.00    +0.164 C 
ENDBRANCH  22  29
ENDBRANCH   1  25
TORSDOF 3
ENDMDL
MODEL 9
REMARK VINA RESULT:      -7.4      4.221      6.146
REMARK  Name = 6GIN_IR2.pdb
REMARK  3 active torsions:
REMARK  status: ('A' for Active; 'I' for Inactive)
REMARK    1  A    between atoms: _6  and  _7
REMARK    2  A    between atoms: _10  and  _13
REMARK    3  A    between atoms: _19  and  _24
REMARK                            x       y       z     vdW  Elec       q    Type
REMARK                         _______ _______ _______ _____ _____    ______ ____
ROOT
ATOM      1  N   UNL     1       9.415  14.624  26.919  0.00  0.00    -0.257 N 
ATOM      2  C   UNL     1       8.669  14.021  27.920  0.00  0.00    +0.267 A 
ATOM      3  O   UNL     1       7.452  13.969  27.809  0.00  0.00    -0.267 OA
ATOM      4  C   UNL     1       9.422  13.462  29.099  0.00  0.00    +0.074 A 
ATOM      5  C   UNL     1       8.734  12.849  30.164  0.00  0.00    +0.006 A 
ATOM      6  C   UNL     1       9.428  12.340  31.272  0.00  0.00    +0.000 A 
ATOM      7  C   UNL     1      10.833  12.415  31.318  0.00  0.00    +0.002 A 
ATOM      8  C   UNL     1      11.533  13.012  30.281  0.00  0.00    +0.019 A 
ATOM      9  C   UNL     1      10.785  13.526  29.174  0.00  0.00    +0.088 A 
ATOM     10  N   UNL     1      11.526  14.141  28.134  0.00  0.00    -0.225 NA
ATOM     11  C   UNL     1      10.818  14.664  27.017  0.00  0.00    +0.185 A 
ENDROOT
BRANCH   6  12
ATOM     12  C   UNL     1       8.742  11.710  32.323  0.00  0.00    +0.003 A 
ATOM     13  C   UNL     1       7.601  12.323  32.992  0.00  0.00    +0.018 A 
ATOM     14  C   UNL     1       7.077  13.617  32.653  0.00  0.00    +0.001 A 
ATOM     15  C   UNL     1       5.990  14.222  33.316  0.00  0.00    +0.000 A 
ATOM     16  C   UNL     1       5.391  13.502  34.351  0.00  0.00    +0.002 A 
ATOM     17  C   UNL     1       5.858  12.225  34.673  0.00  0.00    +0.019 A 
ATOM     18  C   UNL     1       6.980  11.636  33.995  0.00  0.00    +0.081 A 
ATOM     19  N   UNL     1       7.438  10.366  34.349  0.00  0.00    -0.244 NA
ATOM     20  C   UNL     1       8.475   9.754  33.741  0.00  0.00    +0.099 A 
ATOM     21  C   UNL     1       9.139  10.437  32.701  0.00  0.00    +0.021 A 
ENDBRANCH   6  12
BRANCH   1  25
ATOM     22  C   UNL     1       7.666  16.080  23.399  0.00  0.00    +0.048 A 
ATOM     23  C   UNL     1       7.863  16.941  24.477  0.00  0.00    +0.016 A 
ATOM     24  C   UNL     1       8.453  16.464  25.640  0.00  0.00    +0.019 A 
ATOM     25  C   UNL     1       8.894  15.143  25.714  0.00  0.00    +0.068 A 
ATOM     26  C   UNL     1       8.656  14.274  24.662  0.00  0.00    +0.019 A 
ATOM     27  C   UNL     1       8.050  14.742  23.505  0.00  0.00    +0.016 A 
BRANCH  22  29
ATOM     28  C   UNL     1       5.627  16.383  22.096  0.00  0.00    +0.123 C 
ATOM     29  N   UNL     1       7.032  16.526  22.186  0.00  0.00    -0.303 N 
ATOM     30  C   UNL     1       7.755  16.331  20.990  0.00  0.00    +0.123 C 
ATOM     31  C   UNL     1       7.081  15.402  20.001  0.00  0.00    +0.164 C 
ATOM     32  O   UNL     1       6.117  14.531  20.580  0.00  0.00    -0.350 OA
ATOM     33  C   UNL     1       5.103  15.204  21.287  0.00  0.00    +0.164 C 
ENDBRANCH  22  29
ENDBRANCH   1  25
TORSDOF 3
ENDMDL
