MODEL 1
REMARK VINA RESULT:      -7.3      0.000      0.000
REMARK  Name = 4BGG_844.pdb
REMARK  6 active torsions:
REMARK  status: ('A' for Active; 'I' for Inactive)
REMARK    1  A    between atoms: _2  and  _3
REMARK    2  A    between atoms: _4  and  _5
REMARK    3  A    between atoms: _7  and  _29
REMARK    4  A    between atoms: _9  and  _11
REMARK    5  A    between atoms: _13  and  _17
REMARK    6  A    between atoms: _20  and  _23
REMARK                            x       y       z     vdW  Elec       q    Type
REMARK                         _______ _______ _______ _____ _____    ______ ____
ROOT
ATOM      1  C   UNL     1       6.684  20.090  15.420  0.00  0.00    +0.019 A 
ATOM      2  C   UNL     1       6.967  18.833  15.954  0.00  0.00    +0.099 A 
ATOM      3  N   UNL     1       6.981  17.787  15.147  0.00  0.00    -0.242 NA
ATOM      4  C   UNL     1       6.738  17.857  13.802  0.00  0.00    +0.099 A 
ATOM      5  C   UNL     1       6.449  19.102  13.235  0.00  0.00    +0.019 A 
ATOM      6  C   UNL     1       6.438  20.226  14.032  0.00  0.00    +0.003 A 
ENDROOT
BRANCH   1   9
ATOM      7  C   UNL     1       6.322  23.773  16.500  0.00  0.00    +0.175 A 
ATOM      8  C   UNL     1       6.399  22.645  15.684  0.00  0.00    +0.040 A 
ATOM      9  C   UNL     1       6.638  21.363  16.289  0.00  0.00    +0.008 A 
ATOM     10  C   UNL     1       6.807  21.271  17.686  0.00  0.00    +0.040 A 
ATOM     11  C   UNL     1       6.776  22.471  18.500  0.00  0.00    +0.175 A 
ATOM     12  C   UNL     1       6.499  23.695  17.905  0.00  0.00    +0.206 A 
BRANCH   7  14
ATOM     13  C   UNL     1       6.090  25.066  14.609  0.00  0.00    +0.253 C 
ATOM     14  O   UNL     1       6.106  25.037  15.977  0.00  0.00    -0.468 OA
ENDBRANCH   7  14
BRANCH  11  15
ATOM     15  O   UNL     1       6.921  22.470  19.898  0.00  0.00    -0.468 OA
ATOM     16  C   UNL     1       8.152  22.499  20.469  0.00  0.00    +0.253 C 
ENDBRANCH  11  15
BRANCH  12  17
ATOM     17  O   UNL     1       6.430  24.880  18.646  0.00  0.00    -0.465 OA
ATOM     18  C   UNL     1       5.159  25.163  19.172  0.00  0.00    +0.253 C 
ENDBRANCH  12  17
ENDBRANCH   1   9
BRANCH   5  19
ATOM     19  C   UNL     1       6.210  19.248  11.797  0.00  0.00    +0.002 A 
ATOM     20  C   UNL     1       5.215  18.507  11.168  0.00  0.00    +0.001 A 
ATOM     21  C   UNL     1       4.935  18.662   9.745  0.00  0.00    +0.015 A 
ATOM     22  C   UNL     1       5.649  19.520   9.000  0.00  0.00    +0.048 A 
ATOM     23  C   UNL     1       6.670  20.295   9.634  0.00  0.00    +0.015 A 
ATOM     24  C   UNL     1       6.933  20.170  11.062  0.00  0.00    +0.001 A 
BRANCH  22  25
ATOM     25  N   UNL     1       5.370  19.657   7.631  0.00  0.00    -0.305 N 
ATOM     26  C   UNL     1       4.502  20.710   7.237  0.00  0.00    +0.110 C 
ATOM     27  C   UNL     1       4.639  20.997   5.746  0.00  0.00    +0.110 C 
ATOM     28  N   UNL     1       4.126  19.893   4.986  0.00  0.00    -0.214 NA
ATOM     29  C   UNL     1       4.561  18.617   5.458  0.00  0.00    +0.110 C 
ATOM     30  C   UNL     1       5.610  18.687   6.584  0.00  0.00    +0.110 C 
ENDBRANCH  22  25
ENDBRANCH   5  19
TORSDOF 6
ENDMDL
MODEL 2
REMARK VINA RESULT:      -7.3      5.108     10.938
REMARK  Name = 4BGG_844.pdb
REMARK  6 active torsions:
REMARK  status: ('A' for Active; 'I' for Inactive)
REMARK    1  A    between atoms: _2  and  _3
REMARK    2  A    between atoms: _4  and  _5
REMARK    3  A    between atoms: _7  and  _29
REMARK    4  A    between atoms: _9  and  _11
REMARK    5  A    between atoms: _13  and  _17
REMARK    6  A    between atoms: _20  and  _23
REMARK                            x       y       z     vdW  Elec       q    Type
REMARK                         _______ _______ _______ _____ _____    ______ ____
ROOT
ATOM      1  C   UNL     1       7.098  22.281  17.595  0.00  0.00    +0.019 A 
ATOM      2  C   UNL     1       6.141  22.753  18.494  0.00  0.00    +0.099 A 
ATOM      3  N   UNL     1       6.538  23.193  19.675  0.00  0.00    -0.242 NA
ATOM      4  C   UNL     1       7.845  23.223  20.078  0.00  0.00    +0.099 A 
ATOM      5  C   UNL     1       8.830  22.756  19.202  0.00  0.00    +0.019 A 
ATOM      6  C   UNL     1       8.469  22.301  17.953  0.00  0.00    +0.003 A 
ENDROOT
BRANCH   1   9
ATOM      7  C   UNL     1       6.532  19.887  14.627  0.00  0.00    +0.175 A 
ATOM      8  C   UNL     1       6.918  20.354  15.884  0.00  0.00    +0.040 A 
ATOM      9  C   UNL     1       6.724  21.743  16.200  0.00  0.00    +0.008 A 
ATOM     10  C   UNL     1       6.164  22.607  15.236  0.00  0.00    +0.040 A 
ATOM     11  C   UNL     1       5.825  22.101  13.920  0.00  0.00    +0.175 A 
ATOM     12  C   UNL     1       5.977  20.748  13.647  0.00  0.00    +0.206 A 
BRANCH   7  14
ATOM     13  C   UNL     1       7.331  17.809  15.211  0.00  0.00    +0.253 C 
ATOM     14  O   UNL     1       6.703  18.564  14.259  0.00  0.00    -0.468 OA
ENDBRANCH   7  14
BRANCH  11  15
ATOM     15  O   UNL     1       5.252  22.887  12.905  0.00  0.00    -0.468 OA
ATOM     16  C   UNL     1       3.986  23.362  13.026  0.00  0.00    +0.253 C 
ENDBRANCH  11  15
BRANCH  12  17
ATOM     17  O   UNL     1       5.639  20.201  12.404  0.00  0.00    -0.465 OA
ATOM     18  C   UNL     1       6.676  20.223  11.458  0.00  0.00    +0.253 C 
ENDBRANCH  12  17
ENDBRANCH   1   9
BRANCH   5  19
ATOM     19  C   UNL     1      10.250  22.790  19.562  0.00  0.00    +0.002 A 
ATOM     20  C   UNL     1      10.797  21.798  20.369  0.00  0.00    +0.001 A 
ATOM     21  C   UNL     1      12.215  21.790  20.711  0.00  0.00    +0.015 A 
ATOM     22  C   UNL     1      13.028  22.759  20.263  0.00  0.00    +0.048 A 
ATOM     23  C   UNL     1      12.482  23.782  19.426  0.00  0.00    +0.015 A 
ATOM     24  C   UNL     1      11.073  23.777  19.052  0.00  0.00    +0.001 A 
BRANCH  22  25
ATOM     25  N   UNL     1      14.390  22.741  20.602  0.00  0.00    -0.305 N 
ATOM     26  C   UNL     1      14.919  23.876  21.273  0.00  0.00    +0.110 C 
ATOM     27  C   UNL     1      16.247  23.543  21.942  0.00  0.00    +0.110 C 
ATOM     28  N   UNL     1      17.249  23.295  20.946  0.00  0.00    -0.214 NA
ATOM     29  C   UNL     1      16.810  22.446  19.884  0.00  0.00    +0.110 C 
ATOM     30  C   UNL     1      15.409  21.843  20.100  0.00  0.00    +0.110 C 
ENDBRANCH  22  25
ENDBRANCH   5  19
TORSDOF 6
ENDMDL
MODEL 3
REMARK VINA RESULT:      -7.2      5.109     10.772
REMARK  Name = 4BGG_844.pdb
REMARK  6 active torsions:
REMARK  status: ('A' for Active; 'I' for Inactive)
REMARK    1  A    between atoms: _2  and  _3
REMARK    2  A    between atoms: _4  and  _5
REMARK    3  A    between atoms: _7  and  _29
REMARK    4  A    between atoms: _9  and  _11
REMARK    5  A    between atoms: _13  and  _17
REMARK    6  A    between atoms: _20  and  _23
REMARK                            x       y       z     vdW  Elec       q    Type
REMARK                         _______ _______ _______ _____ _____    ______ ____
ROOT
ATOM      1  C   UNL     1       7.104  22.315  17.664  0.00  0.00    +0.019 A 
ATOM      2  C   UNL     1       6.152  22.824  18.548  0.00  0.00    +0.099 A 
ATOM      3  N   UNL     1       6.554  23.293  19.716  0.00  0.00    -0.242 NA
ATOM      4  C   UNL     1       7.862  23.318  20.119  0.00  0.00    +0.099 A 
ATOM      5  C   UNL     1       8.841  22.814  19.257  0.00  0.00    +0.019 A 
ATOM      6  C   UNL     1       8.474  22.328  18.021  0.00  0.00    +0.003 A 
ENDROOT
BRANCH   1   9
ATOM      7  C   UNL     1       5.888  22.059  14.014  0.00  0.00    +0.175 A 
ATOM      8  C   UNL     1       6.185  22.599  15.265  0.00  0.00    +0.040 A 
ATOM      9  C   UNL     1       6.723  21.740  16.285  0.00  0.00    +0.008 A 
ATOM     10  C   UNL     1       6.925  20.371  16.009  0.00  0.00    +0.040 A 
ATOM     11  C   UNL     1       6.554  19.831  14.716  0.00  0.00    +0.175 A 
ATOM     12  C   UNL     1       6.078  20.683  13.728  0.00  0.00    +0.206 A 
BRANCH   7  14
ATOM     13  C   UNL     1       6.212  23.798  12.542  0.00  0.00    +0.253 C 
ATOM     14  O   UNL     1       5.358  22.831  12.995  0.00  0.00    -0.468 OA
ENDBRANCH   7  14
BRANCH  11  15
ATOM     15  O   UNL     1       6.733  18.484  14.352  0.00  0.00    -0.468 OA
ATOM     16  C   UNL     1       7.260  17.592  15.229  0.00  0.00    +0.253 C 
ENDBRANCH  11  15
BRANCH  12  17
ATOM     17  O   UNL     1       5.732  20.220  12.454  0.00  0.00    -0.465 OA
ATOM     18  C   UNL     1       6.800  20.175  11.543  0.00  0.00    +0.253 C 
ENDBRANCH  12  17
ENDBRANCH   1   9
BRANCH   5  19
ATOM     19  C   UNL     1      10.261  22.841  19.616  0.00  0.00    +0.002 A 
ATOM     20  C   UNL     1      10.843  21.762  20.274  0.00  0.00    +0.001 A 
ATOM     21  C   UNL     1      12.262  21.750  20.610  0.00  0.00    +0.015 A 
ATOM     22  C   UNL     1      13.043  22.797  20.303  0.00  0.00    +0.048 A 
ATOM     23  C   UNL     1      12.461  23.911  19.619  0.00  0.00    +0.015 A 
ATOM     24  C   UNL     1      11.051  23.915  19.250  0.00  0.00    +0.001 A 
BRANCH  22  25
ATOM     25  N   UNL     1      14.407  22.774  20.634  0.00  0.00    -0.305 N 
ATOM     26  C   UNL     1      14.956  23.930  21.250  0.00  0.00    +0.110 C 
ATOM     27  C   UNL     1      16.284  23.606  21.926  0.00  0.00    +0.110 C 
ATOM     28  N   UNL     1      17.276  23.299  20.936  0.00  0.00    -0.214 NA
ATOM     29  C   UNL     1      16.817  22.410  19.916  0.00  0.00    +0.110 C 
ATOM     30  C   UNL     1      15.409  21.839  20.166  0.00  0.00    +0.110 C 
ENDBRANCH  22  25
ENDBRANCH   5  19
TORSDOF 6
ENDMDL
MODEL 4
REMARK VINA RESULT:      -7.2      9.541     12.456
REMARK  Name = 4BGG_844.pdb
REMARK  6 active torsions:
REMARK  status: ('A' for Active; 'I' for Inactive)
REMARK    1  A    between atoms: _2  and  _3
REMARK    2  A    between atoms: _4  and  _5
REMARK    3  A    between atoms: _7  and  _29
REMARK    4  A    between atoms: _9  and  _11
REMARK    5  A    between atoms: _13  and  _17
REMARK    6  A    between atoms: _20  and  _23
REMARK                            x       y       z     vdW  Elec       q    Type
REMARK                         _______ _______ _______ _____ _____    ______ ____
ROOT
ATOM      1  C   UNL     1      13.774  22.819  20.325  0.00  0.00    +0.019 A 
ATOM      2  C   UNL     1      13.807  23.925  21.174  0.00  0.00    +0.099 A 
ATOM      3  N   UNL     1      12.967  23.972  22.192  0.00  0.00    -0.242 NA
ATOM      4  C   UNL     1      12.056  22.991  22.477  0.00  0.00    +0.099 A 
ATOM      5  C   UNL     1      11.995  21.869  21.644  0.00  0.00    +0.019 A 
ATOM      6  C   UNL     1      12.861  21.765  20.578  0.00  0.00    +0.003 A 
ENDROOT
BRANCH   1   9
ATOM      7  C   UNL     1      16.961  22.645  18.163  0.00  0.00    +0.175 A 
ATOM      8  C   UNL     1      16.134  22.813  19.274  0.00  0.00    +0.040 A 
ATOM      9  C   UNL     1      14.712  22.684  19.109  0.00  0.00    +0.008 A 
ATOM     10  C   UNL     1      14.179  22.409  17.833  0.00  0.00    +0.040 A 
ATOM     11  C   UNL     1      15.062  22.296  16.689  0.00  0.00    +0.175 A 
ATOM     12  C   UNL     1      16.437  22.378  16.873  0.00  0.00    +0.206 A 
BRANCH   7  14
ATOM     13  C   UNL     1      18.773  23.093  19.510  0.00  0.00    +0.253 C 
ATOM     14  O   UNL     1      18.337  22.767  18.255  0.00  0.00    -0.468 OA
ENDBRANCH   7  14
BRANCH  11  15
ATOM     15  O   UNL     1      14.619  22.011  15.385  0.00  0.00    -0.468 OA
ATOM     16  C   UNL     1      14.022  22.968  14.630  0.00  0.00    +0.253 C 
ENDBRANCH  11  15
BRANCH  12  17
ATOM     17  O   UNL     1      17.336  22.248  15.809  0.00  0.00    -0.465 OA
ATOM     18  C   UNL     1      17.672  20.922  15.492  0.00  0.00    +0.253 C 
ENDBRANCH  12  17
ENDBRANCH   1   9
BRANCH   5  19
ATOM     19  C   UNL     1      11.064  20.770  21.912  0.00  0.00    +0.002 A 
ATOM     20  C   UNL     1      10.273  20.250  20.892  0.00  0.00    +0.001 A 
ATOM     21  C   UNL     1       9.366  19.133  21.126  0.00  0.00    +0.015 A 
ATOM     22  C   UNL     1       9.260  18.586  22.347  0.00  0.00    +0.048 A 
ATOM     23  C   UNL     1      10.073  19.104  23.405  0.00  0.00    +0.015 A 
ATOM     24  C   UNL     1      11.006  20.198  23.170  0.00  0.00    +0.001 A 
BRANCH  22  25
ATOM     25  N   UNL     1       8.381  17.512  22.559  0.00  0.00    -0.305 N 
ATOM     26  C   UNL     1       8.607  16.319  21.822  0.00  0.00    +0.110 C 
ATOM     27  C   UNL     1       7.874  15.142  22.455  0.00  0.00    +0.110 C 
ATOM     28  N   UNL     1       6.456  15.314  22.311  0.00  0.00    -0.214 NA
ATOM     29  C   UNL     1       5.999  16.629  22.631  0.00  0.00    +0.110 C 
ATOM     30  C   UNL     1       7.089  17.550  23.211  0.00  0.00    +0.110 C 
ENDBRANCH  22  25
ENDBRANCH   5  19
TORSDOF 6
ENDMDL
MODEL 5
REMARK VINA RESULT:      -7.2      9.527     12.216
REMARK  Name = 4BGG_844.pdb
REMARK  6 active torsions:
REMARK  status: ('A' for Active; 'I' for Inactive)
REMARK    1  A    between atoms: _2  and  _3
REMARK    2  A    between atoms: _4  and  _5
REMARK    3  A    between atoms: _7  and  _29
REMARK    4  A    between atoms: _9  and  _11
REMARK    5  A    between atoms: _13  and  _17
REMARK    6  A    between atoms: _20  and  _23
REMARK                            x       y       z     vdW  Elec       q    Type
REMARK                         _______ _______ _______ _____ _____    ______ ____
ROOT
ATOM      1  C   UNL     1      13.564  22.696  20.456  0.00  0.00    +0.019 A 
ATOM      2  C   UNL     1      13.562  23.771  21.344  0.00  0.00    +0.099 A 
ATOM      3  N   UNL     1      12.686  23.779  22.333  0.00  0.00    -0.242 NA
ATOM      4  C   UNL     1      11.771  22.784  22.550  0.00  0.00    +0.099 A 
ATOM      5  C   UNL     1      11.745  21.692  21.677  0.00  0.00    +0.019 A 
ATOM      6  C   UNL     1      12.650  21.630  20.639  0.00  0.00    +0.003 A 
ENDROOT
BRANCH   1   9
ATOM      7  C   UNL     1      14.961  22.455  16.871  0.00  0.00    +0.175 A 
ATOM      8  C   UNL     1      14.050  22.489  17.926  0.00  0.00    +0.040 A 
ATOM      9  C   UNL     1      14.546  22.609  19.270  0.00  0.00    +0.008 A 
ATOM     10  C   UNL     1      15.937  22.673  19.498  0.00  0.00    +0.040 A 
ATOM     11  C   UNL     1      16.858  22.578  18.383  0.00  0.00    +0.175 A 
ATOM     12  C   UNL     1      16.361  22.508  17.088  0.00  0.00    +0.206 A 
BRANCH   7  14
ATOM     13  C   UNL     1      13.677  23.309  15.162  0.00  0.00    +0.253 C 
ATOM     14  O   UNL     1      14.546  22.329  15.556  0.00  0.00    -0.468 OA
ENDBRANCH   7  14
BRANCH  11  15
ATOM     15  O   UNL     1      18.256  22.646  18.517  0.00  0.00    -0.468 OA
ATOM     16  C   UNL     1      18.871  23.824  18.794  0.00  0.00    +0.253 C 
ENDBRANCH  11  15
BRANCH  12  17
ATOM     17  O   UNL     1      17.205  22.444  15.973  0.00  0.00    -0.465 OA
ATOM     18  C   UNL     1      17.570  21.142  15.596  0.00  0.00    +0.253 C 
ENDBRANCH  12  17
ENDBRANCH   1   9
BRANCH   5  19
ATOM     19  C   UNL     1      10.812  20.580  21.872  0.00  0.00    +0.002 A 
ATOM     20  C   UNL     1      10.677  19.983  23.122  0.00  0.00    +0.001 A 
ATOM     21  C   UNL     1       9.728  18.899  23.350  0.00  0.00    +0.015 A 
ATOM     22  C   UNL     1       8.968  18.438  22.345  0.00  0.00    +0.048 A 
ATOM     23  C   UNL     1       9.089  19.046  21.056  0.00  0.00    +0.015 A 
ATOM     24  C   UNL     1      10.011  20.152  20.830  0.00  0.00    +0.001 A 
BRANCH  22  25
ATOM     25  N   UNL     1       8.061  17.393  22.579  0.00  0.00    -0.305 N 
ATOM     26  C   UNL     1       8.310  16.148  21.941  0.00  0.00    +0.110 C 
ATOM     27  C   UNL     1       7.523  15.027  22.610  0.00  0.00    +0.110 C 
ATOM     28  N   UNL     1       6.119  15.205  22.371  0.00  0.00    -0.214 NA
ATOM     29  C   UNL     1       5.665  16.545  22.571  0.00  0.00    +0.110 C 
ATOM     30  C   UNL     1       6.734  17.491  23.149  0.00  0.00    +0.110 C 
ENDBRANCH  22  25
ENDBRANCH   5  19
TORSDOF 6
ENDMDL
MODEL 6
REMARK VINA RESULT:      -7.0      4.528      9.857
REMARK  Name = 4BGG_844.pdb
REMARK  6 active torsions:
REMARK  status: ('A' for Active; 'I' for Inactive)
REMARK    1  A    between atoms: _2  and  _3
REMARK    2  A    between atoms: _4  and  _5
REMARK    3  A    between atoms: _7  and  _29
REMARK    4  A    between atoms: _9  and  _11
REMARK    5  A    between atoms: _13  and  _17
REMARK    6  A    between atoms: _20  and  _23
REMARK                            x       y       z     vdW  Elec       q    Type
REMARK                         _______ _______ _______ _____ _____    ______ ____
ROOT
ATOM      1  C   UNL     1       6.092  19.669  12.097  0.00  0.00    +0.019 A 
ATOM      2  C   UNL     1       6.452  20.440  10.992  0.00  0.00    +0.099 A 
ATOM      3  N   UNL     1       6.794  21.703  11.181  0.00  0.00    -0.242 NA
ATOM      4  C   UNL     1       6.824  22.310  12.407  0.00  0.00    +0.099 A 
ATOM      5  C   UNL     1       6.467  21.565  13.536  0.00  0.00    +0.019 A 
ATOM      6  C   UNL     1       6.118  20.240  13.393  0.00  0.00    +0.003 A 
ENDROOT
BRANCH   1   9
ATOM      7  C   UNL     1       4.545  16.408  10.741  0.00  0.00    +0.175 A 
ATOM      8  C   UNL     1       4.875  17.759  10.853  0.00  0.00    +0.040 A 
ATOM      9  C   UNL     1       5.672  18.191  11.968  0.00  0.00    +0.008 A 
ATOM     10  C   UNL     1       6.090  17.251  12.933  0.00  0.00    +0.040 A 
ATOM     11  C   UNL     1       5.683  15.864  12.816  0.00  0.00    +0.175 A 
ATOM     12  C   UNL     1       4.952  15.455  11.709  0.00  0.00    +0.206 A 
BRANCH   7  14
ATOM     13  C   UNL     1       2.514  16.471   9.658  0.00  0.00    +0.253 C 
ATOM     14  O   UNL     1       3.771  15.932   9.696  0.00  0.00    -0.468 OA
ENDBRANCH   7  14
BRANCH  11  15
ATOM     15  O   UNL     1       6.065  14.859  13.723  0.00  0.00    -0.468 OA
ATOM     16  C   UNL     1       5.655  14.899  15.017  0.00  0.00    +0.253 C 
ENDBRANCH  11  15
BRANCH  12  17
ATOM     17  O   UNL     1       4.557  14.125  11.532  0.00  0.00    -0.465 OA
ATOM     18  C   UNL     1       3.367  13.779  12.193  0.00  0.00    +0.253 C 
ENDBRANCH  12  17
ENDBRANCH   1   9
BRANCH   5  19
ATOM     19  C   UNL     1       6.509  22.148  14.879  0.00  0.00    +0.002 A 
ATOM     20  C   UNL     1       6.115  21.401  15.984  0.00  0.00    +0.001 A 
ATOM     21  C   UNL     1       6.182  21.947  17.335  0.00  0.00    +0.015 A 
ATOM     22  C   UNL     1       6.615  23.200  17.542  0.00  0.00    +0.048 A 
ATOM     23  C   UNL     1       7.031  23.978  16.416  0.00  0.00    +0.015 A 
ATOM     24  C   UNL     1       6.999  23.427  15.067  0.00  0.00    +0.001 A 
BRANCH  22  25
ATOM     25  N   UNL     1       6.672  23.713  18.847  0.00  0.00    -0.305 N 
ATOM     26  C   UNL     1       6.799  22.786  19.916  0.00  0.00    +0.110 C 
ATOM     27  C   UNL     1       7.274  23.483  21.186  0.00  0.00    +0.110 C 
ATOM     28  N   UNL     1       6.250  24.360  21.676  0.00  0.00    -0.214 NA
ATOM     29  C   UNL     1       5.649  25.168  20.663  0.00  0.00    +0.110 C 
ATOM     30  C   UNL     1       6.321  25.049  19.283  0.00  0.00    +0.110 C 
ENDBRANCH  22  25
ENDBRANCH   5  19
TORSDOF 6
ENDMDL
MODEL 7
REMARK VINA RESULT:      -7.0      4.494      7.187
REMARK  Name = 4BGG_844.pdb
REMARK  6 active torsions:
REMARK  status: ('A' for Active; 'I' for Inactive)
REMARK    1  A    between atoms: _2  and  _3
REMARK    2  A    between atoms: _4  and  _5
REMARK    3  A    between atoms: _7  and  _29
REMARK    4  A    between atoms: _9  and  _11
REMARK    5  A    between atoms: _13  and  _17
REMARK    6  A    between atoms: _20  and  _23
REMARK                            x       y       z     vdW  Elec       q    Type
REMARK                         _______ _______ _______ _____ _____    ______ ____
ROOT
ATOM      1  C   UNL     1       9.595  22.772  19.613  0.00  0.00    +0.019 A 
ATOM      2  C   UNL     1       8.802  22.871  20.756  0.00  0.00    +0.099 A 
ATOM      3  N   UNL     1       7.489  22.796  20.628  0.00  0.00    -0.242 NA
ATOM      4  C   UNL     1       6.847  22.618  19.433  0.00  0.00    +0.099 A 
ATOM      5  C   UNL     1       7.613  22.516  18.267  0.00  0.00    +0.019 A 
ATOM      6  C   UNL     1       8.988  22.573  18.349  0.00  0.00    +0.003 A 
ENDROOT
BRANCH   1   9
ATOM      7  C   UNL     1      13.231  22.544  20.876  0.00  0.00    +0.175 A 
ATOM      8  C   UNL     1      11.837  22.496  20.869  0.00  0.00    +0.040 A 
ATOM      9  C   UNL     1      11.134  22.857  19.669  0.00  0.00    +0.008 A 
ATOM     10  C   UNL     1      11.860  23.267  18.530  0.00  0.00    +0.040 A 
ATOM     11  C   UNL     1      13.306  23.358  18.589  0.00  0.00    +0.175 A 
ATOM     12  C   UNL     1      13.972  22.962  19.742  0.00  0.00    +0.206 A 
BRANCH   7  14
ATOM     13  C   UNL     1      13.586  22.913  23.120  0.00  0.00    +0.253 C 
ATOM     14  O   UNL     1      13.965  22.219  22.004  0.00  0.00    -0.468 OA
ENDBRANCH   7  14
BRANCH  11  15
ATOM     15  O   UNL     1      14.109  23.743  17.500  0.00  0.00    -0.468 OA
ATOM     16  C   UNL     1      14.320  22.897  16.460  0.00  0.00    +0.253 C 
ENDBRANCH  11  15
BRANCH  12  17
ATOM     17  O   UNL     1      15.367  23.003  19.842  0.00  0.00    -0.465 OA
ATOM     18  C   UNL     1      15.883  24.245  20.247  0.00  0.00    +0.253 C 
ENDBRANCH  12  17
ENDBRANCH   1   9
BRANCH   5  19
ATOM     19  C   UNL     1       6.989  22.294  16.961  0.00  0.00    +0.002 A 
ATOM     20  C   UNL     1       7.416  23.006  15.844  0.00  0.00    +0.001 A 
ATOM     21  C   UNL     1       6.835  22.776  14.526  0.00  0.00    +0.015 A 
ATOM     22  C   UNL     1       5.854  21.876  14.363  0.00  0.00    +0.048 A 
ATOM     23  C   UNL     1       5.408  21.130  15.500  0.00  0.00    +0.015 A 
ATOM     24  C   UNL     1       6.009  21.331  16.813  0.00  0.00    +0.001 A 
BRANCH  22  25
ATOM     25  N   UNL     1       5.302  21.667  13.089  0.00  0.00    -0.305 N 
ATOM     26  C   UNL     1       5.753  20.541  12.351  0.00  0.00    +0.110 C 
ATOM     27  C   UNL     1       4.784  20.207  11.222  0.00  0.00    +0.110 C 
ATOM     28  N   UNL     1       4.815  21.242  10.229  0.00  0.00    -0.214 NA
ATOM     29  C   UNL     1       4.772  22.563  10.771  0.00  0.00    +0.110 C 
ATOM     30  C   UNL     1       4.545  22.611  12.293  0.00  0.00    +0.110 C 
ENDBRANCH  22  25
ENDBRANCH   5  19
TORSDOF 6
ENDMDL
MODEL 8
REMARK VINA RESULT:      -7.0      8.574     11.237
REMARK  Name = 4BGG_844.pdb
REMARK  6 active torsions:
REMARK  status: ('A' for Active; 'I' for Inactive)
REMARK    1  A    between atoms: _2  and  _3
REMARK    2  A    between atoms: _4  and  _5
REMARK    3  A    between atoms: _7  and  _29
REMARK    4  A    between atoms: _9  and  _11
REMARK    5  A    between atoms: _13  and  _17
REMARK    6  A    between atoms: _20  and  _23
REMARK                            x       y       z     vdW  Elec       q    Type
REMARK                         _______ _______ _______ _____ _____    ______ ____
ROOT
ATOM      1  C   UNL     1      12.363  21.773  20.954  0.00  0.00    +0.019 A 
ATOM      2  C   UNL     1      12.871  22.260  22.159  0.00  0.00    +0.099 A 
ATOM      3  N   UNL     1      12.378  21.794  23.293  0.00  0.00    -0.242 NA
ATOM      4  C   UNL     1      11.392  20.847  23.365  0.00  0.00    +0.099 A 
ATOM      5  C   UNL     1      10.860  20.339  22.175  0.00  0.00    +0.019 A 
ATOM      6  C   UNL     1      11.351  20.782  20.967  0.00  0.00    +0.003 A 
ENDROOT
BRANCH   1   9
ATOM      7  C   UNL     1      12.596  23.647  17.593  0.00  0.00    +0.175 A 
ATOM      8  C   UNL     1      12.089  23.187  18.808  0.00  0.00    +0.040 A 
ATOM      9  C   UNL     1      12.874  22.266  19.585  0.00  0.00    +0.008 A 
ATOM     10  C   UNL     1      14.127  21.834  19.102  0.00  0.00    +0.040 A 
ATOM     11  C   UNL     1      14.599  22.289  17.809  0.00  0.00    +0.175 A 
ATOM     12  C   UNL     1      13.850  23.214  17.092  0.00  0.00    +0.206 A 
BRANCH   7  14
ATOM     13  C   UNL     1      10.710  24.006  16.323  0.00  0.00    +0.253 C 
ATOM     14  O   UNL     1      11.884  24.526  16.794  0.00  0.00    -0.468 OA
ENDBRANCH   7  14
BRANCH  11  15
ATOM     15  O   UNL     1      15.838  21.921  17.256  0.00  0.00    -0.468 OA
ATOM     16  C   UNL     1      16.992  22.477  17.707  0.00  0.00    +0.253 C 
ENDBRANCH  11  15
BRANCH  12  17
ATOM     17  O   UNL     1      14.271  23.708  15.852  0.00  0.00    -0.465 OA
ATOM     18  C   UNL     1      13.970  22.876  14.763  0.00  0.00    +0.253 C 
ENDBRANCH  12  17
ENDBRANCH   1   9
BRANCH   5  19
ATOM     19  C   UNL     1       9.825  19.302  22.184  0.00  0.00    +0.002 A 
ATOM     20  C   UNL     1       9.244  18.875  20.995  0.00  0.00    +0.001 A 
ATOM     21  C   UNL     1       8.238  17.819  20.974  0.00  0.00    +0.015 A 
ATOM     22  C   UNL     1       7.836  17.241  22.116  0.00  0.00    +0.048 A 
ATOM     23  C   UNL     1       8.429  17.663  23.347  0.00  0.00    +0.015 A 
ATOM     24  C   UNL     1       9.459  18.694  23.371  0.00  0.00    +0.001 A 
BRANCH  22  25
ATOM     25  N   UNL     1       6.865  16.227  22.082  0.00  0.00    -0.305 N 
ATOM     26  C   UNL     1       7.308  14.896  21.857  0.00  0.00    +0.110 C 
ATOM     27  C   UNL     1       6.240  13.891  22.271  0.00  0.00    +0.110 C 
ATOM     28  N   UNL     1       5.114  13.980  21.386  0.00  0.00    -0.214 NA
ATOM     29  C   UNL     1       4.695  15.320  21.119  0.00  0.00    +0.110 C 
ATOM     30  C   UNL     1       5.432  16.386  21.951  0.00  0.00    +0.110 C 
ENDBRANCH  22  25
ENDBRANCH   5  19
TORSDOF 6
ENDMDL
MODEL 9
REMARK VINA RESULT:      -7.0      4.323      6.689
REMARK  Name = 4BGG_844.pdb
REMARK  6 active torsions:
REMARK  status: ('A' for Active; 'I' for Inactive)
REMARK    1  A    between atoms: _2  and  _3
REMARK    2  A    between atoms: _4  and  _5
REMARK    3  A    between atoms: _7  and  _29
REMARK    4  A    between atoms: _9  and  _11
REMARK    5  A    between atoms: _13  and  _17
REMARK    6  A    between atoms: _20  and  _23
REMARK                            x       y       z     vdW  Elec       q    Type
REMARK                         _______ _______ _______ _____ _____    ______ ____
ROOT
ATOM      1  C   UNL     1       9.307  22.822  19.627  0.00  0.00    +0.019 A 
ATOM      2  C   UNL     1       8.483  22.984  20.740  0.00  0.00    +0.099 A 
ATOM      3  N   UNL     1       7.172  22.952  20.572  0.00  0.00    -0.242 NA
ATOM      4  C   UNL     1       6.562  22.761  19.362  0.00  0.00    +0.099 A 
ATOM      5  C   UNL     1       7.360  22.596  18.225  0.00  0.00    +0.019 A 
ATOM      6  C   UNL     1       8.732  22.607  18.350  0.00  0.00    +0.003 A 
ENDROOT
BRANCH   1   9
ATOM      7  C   UNL     1      13.025  23.326  18.739  0.00  0.00    +0.175 A 
ATOM      8  C   UNL     1      11.638  23.268  18.604  0.00  0.00    +0.040 A 
ATOM      9  C   UNL     1      10.846  22.854  19.729  0.00  0.00    +0.008 A 
ATOM     10  C   UNL     1      11.480  22.502  20.939  0.00  0.00    +0.040 A 
ATOM     11  C   UNL     1      12.927  22.521  21.029  0.00  0.00    +0.175 A 
ATOM     12  C   UNL     1      13.675  22.966  19.946  0.00  0.00    +0.206 A 
BRANCH   7  14
ATOM     13  C   UNL     1      13.180  23.835  16.500  0.00  0.00    +0.253 C 
ATOM     14  O   UNL     1      13.843  23.706  17.689  0.00  0.00    -0.468 OA
ENDBRANCH   7  14
BRANCH  11  15
ATOM     15  O   UNL     1      13.642  22.199  22.196  0.00  0.00    -0.468 OA
ATOM     16  C   UNL     1      13.353  22.805  23.376  0.00  0.00    +0.253 C 
ENDBRANCH  11  15
BRANCH  12  17
ATOM     17  O   UNL     1      15.073  23.031  19.988  0.00  0.00    -0.465 OA
ATOM     18  C   UNL     1      15.583  24.246  20.474  0.00  0.00    +0.253 C 
ENDBRANCH  12  17
ENDBRANCH   1   9
BRANCH   5  19
ATOM     19  C   UNL     1       6.769  22.357  16.907  0.00  0.00    +0.002 A 
ATOM     20  C   UNL     1       6.660  23.392  15.984  0.00  0.00    +0.001 A 
ATOM     21  C   UNL     1       6.109  23.171  14.652  0.00  0.00    +0.015 A 
ATOM     22  C   UNL     1       5.675  21.954  14.289  0.00  0.00    +0.048 A 
ATOM     23  C   UNL     1       5.787  20.877  15.224  0.00  0.00    +0.015 A 
ATOM     24  C   UNL     1       6.369  21.084  16.544  0.00  0.00    +0.001 A 
BRANCH  22  25
ATOM     25  N   UNL     1       5.144  21.756  13.005  0.00  0.00    -0.305 N 
ATOM     26  C   UNL     1       5.588  20.621  12.275  0.00  0.00    +0.110 C 
ATOM     27  C   UNL     1       4.636  20.306  11.127  0.00  0.00    +0.110 C 
ATOM     28  N   UNL     1       4.705  21.340  10.135  0.00  0.00    -0.214 NA
ATOM     29  C   UNL     1       4.676  22.662  10.677  0.00  0.00    +0.110 C 
ATOM     30  C   UNL     1       4.421  22.714  12.195  0.00  0.00    +0.110 C 
ENDBRANCH  22  25
ENDBRANCH   5  19
TORSDOF 6
ENDMDL
