MODEL 1
REMARK VINA RESULT:      -6.3      0.000      0.000
REMARK  Name = 4BGG_844.pdb
REMARK  6 active torsions:
REMARK  status: ('A' for Active; 'I' for Inactive)
REMARK    1  A    between atoms: _2  and  _3
REMARK    2  A    between atoms: _4  and  _5
REMARK    3  A    between atoms: _7  and  _29
REMARK    4  A    between atoms: _9  and  _11
REMARK    5  A    between atoms: _13  and  _17
REMARK    6  A    between atoms: _20  and  _23
REMARK                            x       y       z     vdW  Elec       q    Type
REMARK                         _______ _______ _______ _____ _____    ______ ____
ROOT
ATOM      1  C   UNL     1       9.867  16.553  26.236  0.00  0.00    +0.019 A 
ATOM      2  C   UNL     1      10.553  17.727  26.547  0.00  0.00    +0.099 A 
ATOM      3  N   UNL     1      10.658  18.666  25.624  0.00  0.00    -0.242 NA
ATOM      4  C   UNL     1      10.127  18.564  24.366  0.00  0.00    +0.099 A 
ATOM      5  C   UNL     1       9.435  17.399  24.021  0.00  0.00    +0.019 A 
ATOM      6  C   UNL     1       9.284  16.396  24.955  0.00  0.00    +0.003 A 
ENDROOT
BRANCH   1   9
ATOM      7  C   UNL     1      10.670  13.829  28.843  0.00  0.00    +0.175 A 
ATOM      8  C   UNL     1      10.854  14.840  27.901  0.00  0.00    +0.040 A 
ATOM      9  C   UNL     1       9.703  15.402  27.249  0.00  0.00    +0.008 A 
ATOM     10  C   UNL     1       8.416  14.913  27.559  0.00  0.00    +0.040 A 
ATOM     11  C   UNL     1       8.265  13.822  28.503  0.00  0.00    +0.175 A 
ATOM     12  C   UNL     1       9.384  13.322  29.157  0.00  0.00    +0.206 A 
BRANCH   7  14
ATOM     13  C   UNL     1      12.744  14.117  29.801  0.00  0.00    +0.253 C 
ATOM     14  O   UNL     1      11.739  13.240  29.497  0.00  0.00    -0.468 OA
ENDBRANCH   7  14
BRANCH  11  15
ATOM     15  O   UNL     1       7.022  13.282  28.880  0.00  0.00    -0.468 OA
ATOM     16  C   UNL     1       6.361  12.424  28.062  0.00  0.00    +0.253 C 
ENDBRANCH  11  15
BRANCH  12  17
ATOM     17  O   UNL     1       9.292  12.290  30.097  0.00  0.00    -0.465 OA
ATOM     18  C   UNL     1       9.437  11.001  29.560  0.00  0.00    +0.253 C 
ENDBRANCH  12  17
ENDBRANCH   1   9
BRANCH   5  19
ATOM     19  C   UNL     1       8.817  17.240  22.703  0.00  0.00    +0.002 A 
ATOM     20  C   UNL     1       8.791  18.302  21.804  0.00  0.00    +0.001 A 
ATOM     21  C   UNL     1       8.214  18.158  20.472  0.00  0.00    +0.015 A 
ATOM     22  C   UNL     1       7.674  16.991  20.087  0.00  0.00    +0.048 A 
ATOM     23  C   UNL     1       7.700  15.888  20.997  0.00  0.00    +0.015 A 
ATOM     24  C   UNL     1       8.306  16.015  22.316  0.00  0.00    +0.001 A 
BRANCH  22  25
ATOM     25  N   UNL     1       7.120  16.868  18.803  0.00  0.00    -0.305 N 
ATOM     26  C   UNL     1       7.185  15.595  18.176  0.00  0.00    +0.110 C 
ATOM     27  C   UNL     1       6.193  15.507  17.022  0.00  0.00    +0.110 C 
ATOM     28  N   UNL     1       6.598  16.381  15.959  0.00  0.00    -0.214 NA
ATOM     29  C   UNL     1       6.988  17.683  16.400  0.00  0.00    +0.110 C 
ATOM     30  C   UNL     1       6.748  17.937  17.899  0.00  0.00    +0.110 C 
ENDBRANCH  22  25
ENDBRANCH   5  19
TORSDOF 6
ENDMDL
MODEL 2
REMARK VINA RESULT:      -6.3      3.930      9.369
REMARK  Name = 4BGG_844.pdb
REMARK  6 active torsions:
REMARK  status: ('A' for Active; 'I' for Inactive)
REMARK    1  A    between atoms: _2  and  _3
REMARK    2  A    between atoms: _4  and  _5
REMARK    3  A    between atoms: _7  and  _29
REMARK    4  A    between atoms: _9  and  _11
REMARK    5  A    between atoms: _13  and  _17
REMARK    6  A    between atoms: _20  and  _23
REMARK                            x       y       z     vdW  Elec       q    Type
REMARK                         _______ _______ _______ _____ _____    ______ ____
ROOT
ATOM      1  C   UNL     1       7.799  16.781  21.121  0.00  0.00    +0.019 A 
ATOM      2  C   UNL     1       8.142  17.921  20.396  0.00  0.00    +0.099 A 
ATOM      3  N   UNL     1       9.023  18.762  20.908  0.00  0.00    -0.242 NA
ATOM      4  C   UNL     1       9.635  18.582  22.119  0.00  0.00    +0.099 A 
ATOM      5  C   UNL     1       9.313  17.449  22.873  0.00  0.00    +0.019 A 
ATOM      6  C   UNL     1       8.411  16.534  22.375  0.00  0.00    +0.003 A 
ENDROOT
BRANCH   1   9
ATOM      7  C   UNL     1       5.673  14.607  18.751  0.00  0.00    +0.175 A 
ATOM      8  C   UNL     1       6.576  15.575  19.191  0.00  0.00    +0.040 A 
ATOM      9  C   UNL     1       6.775  15.751  20.603  0.00  0.00    +0.008 A 
ATOM     10  C   UNL     1       6.046  14.960  21.516  0.00  0.00    +0.040 A 
ATOM     11  C   UNL     1       5.074  14.001  21.026  0.00  0.00    +0.175 A 
ATOM     12  C   UNL     1       4.927  13.812  19.658  0.00  0.00    +0.206 A 
BRANCH   7  14
ATOM     13  C   UNL     1       6.040  15.310  16.590  0.00  0.00    +0.253 C 
ATOM     14  O   UNL     1       5.429  14.397  17.405  0.00  0.00    -0.468 OA
ENDBRANCH   7  14
BRANCH  11  15
ATOM     15  O   UNL     1       4.315  13.163  21.862  0.00  0.00    -0.468 OA
ATOM     16  C   UNL     1       4.919  12.240  22.653  0.00  0.00    +0.253 C 
ENDBRANCH  11  15
BRANCH  12  17
ATOM     17  O   UNL     1       4.025  12.880  19.132  0.00  0.00    -0.465 OA
ATOM     18  C   UNL     1       4.555  11.592  18.958  0.00  0.00    +0.253 C 
ENDBRANCH  12  17
ENDBRANCH   1   9
BRANCH   5  19
ATOM     19  C   UNL     1       9.956  17.182  24.162  0.00  0.00    +0.002 A 
ATOM     20  C   UNL     1      10.288  15.882  24.529  0.00  0.00    +0.001 A 
ATOM     21  C   UNL     1      10.962  15.596  25.791  0.00  0.00    +0.015 A 
ATOM     22  C   UNL     1      11.263  16.588  26.642  0.00  0.00    +0.048 A 
ATOM     23  C   UNL     1      10.935  17.932  26.276  0.00  0.00    +0.015 A 
ATOM     24  C   UNL     1      10.293  18.228  25.001  0.00  0.00    +0.001 A 
BRANCH  22  25
ATOM     25  N   UNL     1      11.909  16.298  27.854  0.00  0.00    -0.305 N 
ATOM     26  C   UNL     1      12.943  17.175  28.277  0.00  0.00    +0.110 C 
ATOM     27  C   UNL     1      13.237  16.992  29.762  0.00  0.00    +0.110 C 
ATOM     28  N   UNL     1      13.830  15.705  29.989  0.00  0.00    -0.214 NA
ATOM     29  C   UNL     1      13.169  14.637  29.308  0.00  0.00    +0.110 C 
ATOM     30  C   UNL     1      11.869  15.055  28.596  0.00  0.00    +0.110 C 
ENDBRANCH  22  25
ENDBRANCH   5  19
TORSDOF 6
ENDMDL
MODEL 3
REMARK VINA RESULT:      -6.3      2.627      4.090
REMARK  Name = 4BGG_844.pdb
REMARK  6 active torsions:
REMARK  status: ('A' for Active; 'I' for Inactive)
REMARK    1  A    between atoms: _2  and  _3
REMARK    2  A    between atoms: _4  and  _5
REMARK    3  A    between atoms: _7  and  _29
REMARK    4  A    between atoms: _9  and  _11
REMARK    5  A    between atoms: _13  and  _17
REMARK    6  A    between atoms: _20  and  _23
REMARK                            x       y       z     vdW  Elec       q    Type
REMARK                         _______ _______ _______ _____ _____    ______ ____
ROOT
ATOM      1  C   UNL     1      10.865  16.959  26.297  0.00  0.00    +0.019 A 
ATOM      2  C   UNL     1      11.250  18.273  26.030  0.00  0.00    +0.099 A 
ATOM      3  N   UNL     1      10.680  18.911  25.023  0.00  0.00    -0.242 NA
ATOM      4  C   UNL     1       9.719  18.363  24.217  0.00  0.00    +0.099 A 
ATOM      5  C   UNL     1       9.311  17.047  24.457  0.00  0.00    +0.019 A 
ATOM      6  C   UNL     1       9.864  16.344  25.505  0.00  0.00    +0.003 A 
ENDROOT
BRANCH   1   9
ATOM      7  C   UNL     1      11.509  14.138  28.844  0.00  0.00    +0.175 A 
ATOM      8  C   UNL     1      10.904  14.878  27.829  0.00  0.00    +0.040 A 
ATOM      9  C   UNL     1      11.483  16.137  27.446  0.00  0.00    +0.008 A 
ATOM     10  C   UNL     1      12.636  16.607  28.110  0.00  0.00    +0.040 A 
ATOM     11  C   UNL     1      13.207  15.838  29.198  0.00  0.00    +0.175 A 
ATOM     12  C   UNL     1      12.663  14.603  29.525  0.00  0.00    +0.206 A 
BRANCH   7  14
ATOM     13  C   UNL     1       9.768  13.030  29.864  0.00  0.00    +0.253 C 
ATOM     14  O   UNL     1      10.993  12.924  29.266  0.00  0.00    -0.468 OA
ENDBRANCH   7  14
BRANCH  11  15
ATOM     15  O   UNL     1      14.361  16.223  29.905  0.00  0.00    -0.468 OA
ATOM     16  C   UNL     1      14.274  17.052  30.976  0.00  0.00    +0.253 C 
ENDBRANCH  11  15
BRANCH  12  17
ATOM     17  O   UNL     1      13.192  13.807  30.548  0.00  0.00    -0.465 OA
ATOM     18  C   UNL     1      14.279  13.009  30.158  0.00  0.00    +0.253 C 
ENDBRANCH  12  17
ENDBRANCH   1   9
BRANCH   5  19
ATOM     19  C   UNL     1       8.265  16.413  23.651  0.00  0.00    +0.002 A 
ATOM     20  C   UNL     1       8.351  15.065  23.317  0.00  0.00    +0.001 A 
ATOM     21  C   UNL     1       7.304  14.404  22.547  0.00  0.00    +0.015 A 
ATOM     22  C   UNL     1       6.232  15.091  22.124  0.00  0.00    +0.048 A 
ATOM     23  C   UNL     1       6.126  16.476  22.466  0.00  0.00    +0.015 A 
ATOM     24  C   UNL     1       7.151  17.135  23.265  0.00  0.00    +0.001 A 
BRANCH  22  25
ATOM     25  N   UNL     1       5.234  14.442  21.381  0.00  0.00    -0.305 N 
ATOM     26  C   UNL     1       4.622  13.297  21.956  0.00  0.00    +0.110 C 
ATOM     27  C   UNL     1       3.306  12.975  21.258  0.00  0.00    +0.110 C 
ATOM     28  N   UNL     1       3.559  12.532  19.917  0.00  0.00    -0.214 NA
ATOM     29  C   UNL     1       4.504  13.338  19.211  0.00  0.00    +0.110 C 
ATOM     30  C   UNL     1       4.942  14.604  19.972  0.00  0.00    +0.110 C 
ENDBRANCH  22  25
ENDBRANCH   5  19
TORSDOF 6
ENDMDL
MODEL 4
REMARK VINA RESULT:      -6.3      3.920      9.399
REMARK  Name = 4BGG_844.pdb
REMARK  6 active torsions:
REMARK  status: ('A' for Active; 'I' for Inactive)
REMARK    1  A    between atoms: _2  and  _3
REMARK    2  A    between atoms: _4  and  _5
REMARK    3  A    between atoms: _7  and  _29
REMARK    4  A    between atoms: _9  and  _11
REMARK    5  A    between atoms: _13  and  _17
REMARK    6  A    between atoms: _20  and  _23
REMARK                            x       y       z     vdW  Elec       q    Type
REMARK                         _______ _______ _______ _____ _____    ______ ____
ROOT
ATOM      1  C   UNL     1       7.884  16.841  21.057  0.00  0.00    +0.019 A 
ATOM      2  C   UNL     1       8.193  17.999  20.345  0.00  0.00    +0.099 A 
ATOM      3  N   UNL     1       9.058  18.854  20.862  0.00  0.00    -0.242 NA
ATOM      4  C   UNL     1       9.684  18.673  22.064  0.00  0.00    +0.099 A 
ATOM      5  C   UNL     1       9.396  17.522  22.806  0.00  0.00    +0.019 A 
ATOM      6  C   UNL     1       8.513  16.593  22.302  0.00  0.00    +0.003 A 
ENDROOT
BRANCH   1   9
ATOM      7  C   UNL     1       5.127  14.149  20.946  0.00  0.00    +0.175 A 
ATOM      8  C   UNL     1       6.055  15.060  21.452  0.00  0.00    +0.040 A 
ATOM      9  C   UNL     1       6.881  15.794  20.533  0.00  0.00    +0.008 A 
ATOM     10  C   UNL     1       6.752  15.572  19.146  0.00  0.00    +0.040 A 
ATOM     11  C   UNL     1       5.817  14.578  18.657  0.00  0.00    +0.175 A 
ATOM     12  C   UNL     1       4.994  13.910  19.555  0.00  0.00    +0.206 A 
BRANCH   7  14
ATOM     13  C   UNL     1       4.997  12.533  22.580  0.00  0.00    +0.253 C 
ATOM     14  O   UNL     1       4.311  13.403  21.779  0.00  0.00    -0.468 OA
ENDBRANCH   7  14
BRANCH  11  15
ATOM     15  O   UNL     1       5.614  14.301  17.293  0.00  0.00    -0.468 OA
ATOM     16  C   UNL     1       5.886  15.236  16.347  0.00  0.00    +0.253 C 
ENDBRANCH  11  15
BRANCH  12  17
ATOM     17  O   UNL     1       4.055  12.961  19.135  0.00  0.00    -0.465 OA
ATOM     18  C   UNL     1       4.572  11.667  18.965  0.00  0.00    +0.253 C 
ENDBRANCH  12  17
ENDBRANCH   1   9
BRANCH   5  19
ATOM     19  C   UNL     1      10.056  17.254  24.086  0.00  0.00    +0.002 A 
ATOM     20  C   UNL     1       9.457  16.424  25.028  0.00  0.00    +0.001 A 
ATOM     21  C   UNL     1      10.111  16.113  26.295  0.00  0.00    +0.015 A 
ATOM     22  C   UNL     1      11.310  16.639  26.588  0.00  0.00    +0.048 A 
ATOM     23  C   UNL     1      11.943  17.487  25.626  0.00  0.00    +0.015 A 
ATOM     24  C   UNL     1      11.311  17.775  24.344  0.00  0.00    +0.001 A 
BRANCH  22  25
ATOM     25  N   UNL     1      11.927  16.333  27.811  0.00  0.00    -0.305 N 
ATOM     26  C   UNL     1      12.969  17.189  28.257  0.00  0.00    +0.110 C 
ATOM     27  C   UNL     1      13.230  16.997  29.746  0.00  0.00    +0.110 C 
ATOM     28  N   UNL     1      13.795  15.698  29.981  0.00  0.00    -0.214 NA
ATOM     29  C   UNL     1      13.127  14.645  29.284  0.00  0.00    +0.110 C 
ATOM     30  C   UNL     1      11.850  15.089  28.548  0.00  0.00    +0.110 C 
ENDBRANCH  22  25
ENDBRANCH   5  19
TORSDOF 6
ENDMDL
MODEL 5
REMARK VINA RESULT:      -6.2      2.669      3.566
REMARK  Name = 4BGG_844.pdb
REMARK  6 active torsions:
REMARK  status: ('A' for Active; 'I' for Inactive)
REMARK    1  A    between atoms: _2  and  _3
REMARK    2  A    between atoms: _4  and  _5
REMARK    3  A    between atoms: _7  and  _29
REMARK    4  A    between atoms: _9  and  _11
REMARK    5  A    between atoms: _13  and  _17
REMARK    6  A    between atoms: _20  and  _23
REMARK                            x       y       z     vdW  Elec       q    Type
REMARK                         _______ _______ _______ _____ _____    ______ ____
ROOT
ATOM      1  C   UNL     1      10.609  16.846  26.173  0.00  0.00    +0.019 A 
ATOM      2  C   UNL     1      10.951  18.173  25.917  0.00  0.00    +0.099 A 
ATOM      3  N   UNL     1      10.352  18.805  24.923  0.00  0.00    -0.242 NA
ATOM      4  C   UNL     1       9.400  18.237  24.121  0.00  0.00    +0.099 A 
ATOM      5  C   UNL     1       9.035  16.907  24.349  0.00  0.00    +0.019 A 
ATOM      6  C   UNL     1       9.619  16.209  25.384  0.00  0.00    +0.003 A 
ENDROOT
BRANCH   1   9
ATOM      7  C   UNL     1      13.012  15.762  28.986  0.00  0.00    +0.175 A 
ATOM      8  C   UNL     1      12.466  16.500  27.936  0.00  0.00    +0.040 A 
ATOM      9  C   UNL     1      11.263  16.030  27.307  0.00  0.00    +0.008 A 
ATOM     10  C   UNL     1      10.666  14.830  27.747  0.00  0.00    +0.040 A 
ATOM     11  C   UNL     1      11.290  14.058  28.805  0.00  0.00    +0.175 A 
ATOM     12  C   UNL     1      12.427  14.550  29.433  0.00  0.00    +0.206 A 
BRANCH   7  14
ATOM     13  C   UNL     1      13.980  17.140  30.556  0.00  0.00    +0.253 C 
ATOM     14  O   UNL     1      14.175  16.156  29.626  0.00  0.00    -0.468 OA
ENDBRANCH   7  14
BRANCH  11  15
ATOM     15  O   UNL     1      10.759  12.860  29.315  0.00  0.00    -0.468 OA
ATOM     16  C   UNL     1       9.649  12.870  30.096  0.00  0.00    +0.253 C 
ENDBRANCH  11  15
BRANCH  12  17
ATOM     17  O   UNL     1      13.054  13.860  30.477  0.00  0.00    -0.465 OA
ATOM     18  C   UNL     1      14.129  13.051  30.076  0.00  0.00    +0.253 C 
ENDBRANCH  12  17
ENDBRANCH   1   9
BRANCH   5  19
ATOM     19  C   UNL     1       8.000  16.251  23.546  0.00  0.00    +0.002 A 
ATOM     20  C   UNL     1       8.111  14.903  23.217  0.00  0.00    +0.001 A 
ATOM     21  C   UNL     1       7.076  14.219  22.450  0.00  0.00    +0.015 A 
ATOM     22  C   UNL     1       5.992  14.885  22.025  0.00  0.00    +0.048 A 
ATOM     23  C   UNL     1       5.860  16.270  22.361  0.00  0.00    +0.015 A 
ATOM     24  C   UNL     1       6.873  16.951  23.157  0.00  0.00    +0.001 A 
BRANCH  22  25
ATOM     25  N   UNL     1       5.006  14.215  21.285  0.00  0.00    -0.305 N 
ATOM     26  C   UNL     1       4.387  13.084  21.881  0.00  0.00    +0.110 C 
ATOM     27  C   UNL     1       3.082  12.741  21.173  0.00  0.00    +0.110 C 
ATOM     28  N   UNL     1       3.355  12.264  19.847  0.00  0.00    -0.214 NA
ATOM     29  C   UNL     1       4.309  13.053  19.134  0.00  0.00    +0.110 C 
ATOM     30  C   UNL     1       4.734  14.339  19.868  0.00  0.00    +0.110 C 
ENDBRANCH  22  25
ENDBRANCH   5  19
TORSDOF 6
ENDMDL
MODEL 6
REMARK VINA RESULT:      -6.2      5.220     11.110
REMARK  Name = 4BGG_844.pdb
REMARK  6 active torsions:
REMARK  status: ('A' for Active; 'I' for Inactive)
REMARK    1  A    between atoms: _2  and  _3
REMARK    2  A    between atoms: _4  and  _5
REMARK    3  A    between atoms: _7  and  _29
REMARK    4  A    between atoms: _9  and  _11
REMARK    5  A    between atoms: _13  and  _17
REMARK    6  A    between atoms: _20  and  _23
REMARK                            x       y       z     vdW  Elec       q    Type
REMARK                         _______ _______ _______ _____ _____    ______ ____
ROOT
ATOM      1  C   UNL     1       9.298  13.892  27.003  0.00  0.00    +0.019 A 
ATOM      2  C   UNL     1       9.610  12.657  26.434  0.00  0.00    +0.099 A 
ATOM      3  N   UNL     1       9.488  11.568  27.171  0.00  0.00    -0.242 NA
ATOM      4  C   UNL     1       9.064  11.570  28.472  0.00  0.00    +0.099 A 
ATOM      5  C   UNL     1       8.745  12.791  29.074  0.00  0.00    +0.019 A 
ATOM      6  C   UNL     1       8.841  13.955  28.342  0.00  0.00    +0.003 A 
ENDROOT
BRANCH   1   9
ATOM      7  C   UNL     1       8.943  16.552  24.235  0.00  0.00    +0.175 A 
ATOM      8  C   UNL     1       8.854  15.331  24.903  0.00  0.00    +0.040 A 
ATOM      9  C   UNL     1       9.420  15.215  26.219  0.00  0.00    +0.008 A 
ATOM     10  C   UNL     1      10.066  16.325  26.803  0.00  0.00    +0.040 A 
ATOM     11  C   UNL     1      10.190  17.563  26.058  0.00  0.00    +0.175 A 
ATOM     12  C   UNL     1       9.598  17.672  24.807  0.00  0.00    +0.206 A 
BRANCH   7  14
ATOM     13  C   UNL     1       7.067  16.609  22.903  0.00  0.00    +0.253 C 
ATOM     14  O   UNL     1       8.429  16.724  22.961  0.00  0.00    -0.468 OA
ENDBRANCH   7  14
BRANCH  11  15
ATOM     15  O   UNL     1      10.804  18.721  26.567  0.00  0.00    -0.468 OA
ATOM     16  C   UNL     1      11.046  18.852  27.896  0.00  0.00    +0.253 C 
ENDBRANCH  11  15
BRANCH  12  17
ATOM     17  O   UNL     1       9.663  18.853  24.057  0.00  0.00    -0.465 OA
ATOM     18  C   UNL     1      10.723  18.899  23.138  0.00  0.00    +0.253 C 
ENDBRANCH  12  17
ENDBRANCH   1   9
BRANCH   5  19
ATOM     19  C   UNL     1       8.256  12.858  30.453  0.00  0.00    +0.002 A 
ATOM     20  C   UNL     1       9.150  12.890  31.518  0.00  0.00    +0.001 A 
ATOM     21  C   UNL     1       8.689  12.993  32.898  0.00  0.00    +0.015 A 
ATOM     22  C   UNL     1       7.377  13.044  33.174  0.00  0.00    +0.048 A 
ATOM     23  C   UNL     1       6.444  13.021  32.089  0.00  0.00    +0.015 A 
ATOM     24  C   UNL     1       6.900  12.952  30.707  0.00  0.00    +0.001 A 
BRANCH  22  25
ATOM     25  N   UNL     1       6.947  13.141  34.506  0.00  0.00    -0.305 N 
ATOM     26  C   UNL     1       5.554  13.294  34.741  0.00  0.00    +0.110 C 
ATOM     27  C   UNL     1       5.205  12.954  36.185  0.00  0.00    +0.110 C 
ATOM     28  N   UNL     1       5.763  13.938  37.069  0.00  0.00    -0.214 NA
ATOM     29  C   UNL     1       7.121  14.272  36.776  0.00  0.00    +0.110 C 
ATOM     30  C   UNL     1       7.759  13.404  35.676  0.00  0.00    +0.110 C 
ENDBRANCH  22  25
ENDBRANCH   5  19
TORSDOF 6
ENDMDL
MODEL 7
REMARK VINA RESULT:      -6.2      5.237     10.921
REMARK  Name = 4BGG_844.pdb
REMARK  6 active torsions:
REMARK  status: ('A' for Active; 'I' for Inactive)
REMARK    1  A    between atoms: _2  and  _3
REMARK    2  A    between atoms: _4  and  _5
REMARK    3  A    between atoms: _7  and  _29
REMARK    4  A    between atoms: _9  and  _11
REMARK    5  A    between atoms: _13  and  _17
REMARK    6  A    between atoms: _20  and  _23
REMARK                            x       y       z     vdW  Elec       q    Type
REMARK                         _______ _______ _______ _____ _____    ______ ____
ROOT
ATOM      1  C   UNL     1       9.279  13.923  26.975  0.00  0.00    +0.019 A 
ATOM      2  C   UNL     1       9.620  12.687  26.429  0.00  0.00    +0.099 A 
ATOM      3  N   UNL     1       9.535  11.609  27.189  0.00  0.00    -0.242 NA
ATOM      4  C   UNL     1       9.121  11.626  28.493  0.00  0.00    +0.099 A 
ATOM      5  C   UNL     1       8.772  12.850  29.072  0.00  0.00    +0.019 A 
ATOM      6  C   UNL     1       8.830  14.001  28.316  0.00  0.00    +0.003 A 
ENDROOT
BRANCH   1   9
ATOM      7  C   UNL     1      10.337  17.434  25.785  0.00  0.00    +0.175 A 
ATOM      8  C   UNL     1      10.258  16.279  26.562  0.00  0.00    +0.040 A 
ATOM      9  C   UNL     1       9.357  15.233  26.164  0.00  0.00    +0.008 A 
ATOM     10  C   UNL     1       8.560  15.397  25.011  0.00  0.00    +0.040 A 
ATOM     11  C   UNL     1       8.626  16.634  24.257  0.00  0.00    +0.175 A 
ATOM     12  C   UNL     1       9.535  17.616  24.629  0.00  0.00    +0.206 A 
BRANCH   7  14
ATOM     13  C   UNL     1      12.497  18.127  26.175  0.00  0.00    +0.253 C 
ATOM     14  O   UNL     1      11.177  18.482  26.121  0.00  0.00    -0.468 OA
ENDBRANCH   7  14
BRANCH  11  15
ATOM     15  O   UNL     1       7.879  16.879  23.091  0.00  0.00    -0.468 OA
ATOM     16  C   UNL     1       6.561  17.192  23.164  0.00  0.00    +0.253 C 
ENDBRANCH  11  15
BRANCH  12  17
ATOM     17  O   UNL     1       9.660  18.816  23.921  0.00  0.00    -0.465 OA
ATOM     18  C   UNL     1      10.564  18.766  22.848  0.00  0.00    +0.253 C 
ENDBRANCH  12  17
ENDBRANCH   1   9
BRANCH   5  19
ATOM     19  C   UNL     1       8.292  12.931  30.454  0.00  0.00    +0.002 A 
ATOM     20  C   UNL     1       6.928  12.969  30.726  0.00  0.00    +0.001 A 
ATOM     21  C   UNL     1       6.426  13.013  32.094  0.00  0.00    +0.015 A 
ATOM     22  C   UNL     1       7.276  13.035  33.131  0.00  0.00    +0.048 A 
ATOM     23  C   UNL     1       8.682  12.988  32.869  0.00  0.00    +0.015 A 
ATOM     24  C   UNL     1       9.190  12.910  31.505  0.00  0.00    +0.001 A 
BRANCH  22  25
ATOM     25  N   UNL     1       6.779  13.080  34.443  0.00  0.00    -0.305 N 
ATOM     26  C   UNL     1       5.391  13.330  34.614  0.00  0.00    +0.110 C 
ATOM     27  C   UNL     1       4.934  12.927  36.011  0.00  0.00    +0.110 C 
ATOM     28  N   UNL     1       5.514  13.804  36.988  0.00  0.00    -0.214 NA
ATOM     29  C   UNL     1       6.908  14.046  36.790  0.00  0.00    +0.110 C 
ATOM     30  C   UNL     1       7.540  13.201  35.669  0.00  0.00    +0.110 C 
ENDBRANCH  22  25
ENDBRANCH   5  19
TORSDOF 6
ENDMDL
MODEL 8
REMARK VINA RESULT:      -6.1      5.853     11.523
REMARK  Name = 4BGG_844.pdb
REMARK  6 active torsions:
REMARK  status: ('A' for Active; 'I' for Inactive)
REMARK    1  A    between atoms: _2  and  _3
REMARK    2  A    between atoms: _4  and  _5
REMARK    3  A    between atoms: _7  and  _29
REMARK    4  A    between atoms: _9  and  _11
REMARK    5  A    between atoms: _13  and  _17
REMARK    6  A    between atoms: _20  and  _23
REMARK                            x       y       z     vdW  Elec       q    Type
REMARK                         _______ _______ _______ _____ _____    ______ ____
ROOT
ATOM      1  C   UNL     1       8.112  13.293  28.300  0.00  0.00    +0.019 A 
ATOM      2  C   UNL     1       7.726  12.175  27.561  0.00  0.00    +0.099 A 
ATOM      3  N   UNL     1       7.028  11.226  28.159  0.00  0.00    -0.242 NA
ATOM      4  C   UNL     1       6.649  11.270  29.473  0.00  0.00    +0.099 A 
ATOM      5  C   UNL     1       7.022  12.377  30.243  0.00  0.00    +0.019 A 
ATOM      6  C   UNL     1       7.736  13.401  29.661  0.00  0.00    +0.003 A 
ENDROOT
BRANCH   1   9
ATOM      7  C   UNL     1      11.065  15.587  27.359  0.00  0.00    +0.175 A 
ATOM      8  C   UNL     1      10.339  14.560  27.963  0.00  0.00    +0.040 A 
ATOM      9  C   UNL     1       8.934  14.443  27.684  0.00  0.00    +0.008 A 
ATOM     10  C   UNL     1       8.313  15.372  26.823  0.00  0.00    +0.040 A 
ATOM     11  C   UNL     1       9.085  16.461  26.256  0.00  0.00    +0.175 A 
ATOM     12  C   UNL     1      10.451  16.532  26.499  0.00  0.00    +0.206 A 
BRANCH   7  14
ATOM     13  C   UNL     1      12.732  15.846  28.925  0.00  0.00    +0.253 C 
ATOM     14  O   UNL     1      12.418  15.759  27.597  0.00  0.00    -0.468 OA
ENDBRANCH   7  14
BRANCH  11  15
ATOM     15  O   UNL     1       8.553  17.422  25.378  0.00  0.00    -0.468 OA
ATOM     16  C   UNL     1       7.875  17.045  24.264  0.00  0.00    +0.253 C 
ENDBRANCH  11  15
BRANCH  12  17
ATOM     17  O   UNL     1      11.249  17.545  25.955  0.00  0.00    -0.465 OA
ATOM     18  C   UNL     1      11.282  18.727  26.710  0.00  0.00    +0.253 C 
ENDBRANCH  12  17
ENDBRANCH   1   9
BRANCH   5  19
ATOM     19  C   UNL     1       6.621  12.500  31.647  0.00  0.00    +0.002 A 
ATOM     20  C   UNL     1       6.512  13.752  32.243  0.00  0.00    +0.001 A 
ATOM     21  C   UNL     1       6.080  13.902  33.628  0.00  0.00    +0.015 A 
ATOM     22  C   UNL     1       5.790  12.822  34.371  0.00  0.00    +0.048 A 
ATOM     23  C   UNL     1       5.890  11.528  33.770  0.00  0.00    +0.015 A 
ATOM     24  C   UNL     1       6.288  11.373  32.377  0.00  0.00    +0.001 A 
BRANCH  22  25
ATOM     25  N   UNL     1       5.378  12.981  35.703  0.00  0.00    -0.305 N 
ATOM     26  C   UNL     1       4.101  13.557  35.935  0.00  0.00    +0.110 C 
ATOM     27  C   UNL     1       3.624  13.270  37.354  0.00  0.00    +0.110 C 
ATOM     28  N   UNL     1       4.442  13.978  38.297  0.00  0.00    -0.214 NA
ATOM     29  C   UNL     1       5.843  13.877  38.035  0.00  0.00    +0.110 C 
ATOM     30  C   UNL     1       6.201  12.910  36.892  0.00  0.00    +0.110 C 
ENDBRANCH  22  25
ENDBRANCH   5  19
TORSDOF 6
ENDMDL
MODEL 9
REMARK VINA RESULT:      -6.1      5.888     11.748
REMARK  Name = 4BGG_844.pdb
REMARK  6 active torsions:
REMARK  status: ('A' for Active; 'I' for Inactive)
REMARK    1  A    between atoms: _2  and  _3
REMARK    2  A    between atoms: _4  and  _5
REMARK    3  A    between atoms: _7  and  _29
REMARK    4  A    between atoms: _9  and  _11
REMARK    5  A    between atoms: _13  and  _17
REMARK    6  A    between atoms: _20  and  _23
REMARK                            x       y       z     vdW  Elec       q    Type
REMARK                         _______ _______ _______ _____ _____    ______ ____
ROOT
ATOM      1  C   UNL     1       8.127  13.237  28.392  0.00  0.00    +0.019 A 
ATOM      2  C   UNL     1       7.711  12.123  27.662  0.00  0.00    +0.099 A 
ATOM      3  N   UNL     1       6.987  11.199  28.268  0.00  0.00    -0.242 NA
ATOM      4  C   UNL     1       6.608  11.266  29.581  0.00  0.00    +0.099 A 
ATOM      5  C   UNL     1       7.010  12.368  30.342  0.00  0.00    +0.019 A 
ATOM      6  C   UNL     1       7.753  13.367  29.752  0.00  0.00    +0.003 A 
ENDROOT
BRANCH   1   9
ATOM      7  C   UNL     1       9.161  16.376  26.407  0.00  0.00    +0.175 A 
ATOM      8  C   UNL     1       8.371  15.350  26.924  0.00  0.00    +0.040 A 
ATOM      9  C   UNL     1       8.981  14.359  27.768  0.00  0.00    +0.008 A 
ATOM     10  C   UNL     1      10.363  14.432  28.044  0.00  0.00    +0.040 A 
ATOM     11  C   UNL     1      11.165  15.481  27.446  0.00  0.00    +0.175 A 
ATOM     12  C   UNL     1      10.552  16.456  26.670  0.00  0.00    +0.206 A 
BRANCH   7  14
ATOM     13  C   UNL     1       7.960  16.850  24.501  0.00  0.00    +0.253 C 
ATOM     14  O   UNL     1       8.634  17.353  25.579  0.00  0.00    -0.468 OA
ENDBRANCH   7  14
BRANCH  11  15
ATOM     15  O   UNL     1      12.544  15.637  27.677  0.00  0.00    -0.468 OA
ATOM     16  C   UNL     1      13.021  15.814  28.935  0.00  0.00    +0.253 C 
ENDBRANCH  11  15
BRANCH  12  17
ATOM     17  O   UNL     1      11.274  17.505  26.092  0.00  0.00    -0.465 OA
ATOM     18  C   UNL     1      11.386  18.648  26.900  0.00  0.00    +0.253 C 
ENDBRANCH  12  17
ENDBRANCH   1   9
BRANCH   5  19
ATOM     19  C   UNL     1       6.611  12.514  31.744  0.00  0.00    +0.002 A 
ATOM     20  C   UNL     1       6.522  13.775  32.325  0.00  0.00    +0.001 A 
ATOM     21  C   UNL     1       6.092  13.949  33.708  0.00  0.00    +0.015 A 
ATOM     22  C   UNL     1       5.785  12.883  34.463  0.00  0.00    +0.048 A 
ATOM     23  C   UNL     1       5.863  11.580  33.878  0.00  0.00    +0.015 A 
ATOM     24  C   UNL     1       6.260  11.402  32.487  0.00  0.00    +0.001 A 
BRANCH  22  25
ATOM     25  N   UNL     1       5.375  13.064  35.793  0.00  0.00    -0.305 N 
ATOM     26  C   UNL     1       4.059  13.550  36.018  0.00  0.00    +0.110 C 
ATOM     27  C   UNL     1       3.620  13.286  37.454  0.00  0.00    +0.110 C 
ATOM     28  N   UNL     1       4.391  14.092  38.357  0.00  0.00    -0.214 NA
ATOM     29  C   UNL     1       5.792  14.089  38.081  0.00  0.00    +0.110 C 
ATOM     30  C   UNL     1       6.213  13.105  36.974  0.00  0.00    +0.110 C 
ENDBRANCH  22  25
ENDBRANCH   5  19
TORSDOF 6
ENDMDL
