MODEL 1
REMARK VINA RESULT:      -8.7      0.000      0.000
REMARK  Name = 6T6D_MM8.pdb
REMARK  7 active torsions:
REMARK  status: ('A' for Active; 'I' for Inactive)
REMARK    1  A    between atoms: _1  and  _2
REMARK    2  A    between atoms: _2  and  _3
REMARK    3  A    between atoms: _5  and  _6
REMARK    4  A    between atoms: _10  and  _11
REMARK    5  A    between atoms: _14  and  _15
REMARK    6  A    between atoms: _23  and  _24
REMARK    7  A    between atoms: _27  and  _28
REMARK                            x       y       z     vdW  Elec       q    Type
REMARK                         _______ _______ _______ _____ _____    ______ ____
ROOT
ATOM      1  C   UNL     1       9.181  24.355  18.124  0.00  0.00    +0.004 A 
ATOM      2  C   UNL     1      10.582  24.411  18.288  0.00  0.00    -0.032 A 
ATOM      3  C   UNL     1      11.386  25.515  17.625  0.00  0.00    +0.045 C 
ATOM      4  C   UNL     1      11.213  23.406  19.082  0.00  0.00    +0.004 A 
ATOM      5  C   UNL     1      10.440  22.434  19.669  0.00  0.00    +0.119 A 
ATOM      6  N   UNL     1       9.117  22.406  19.500  0.00  0.00    -0.262 NA
ATOM      7  C   UNL     1       8.502  23.332  18.756  0.00  0.00    +0.119 A 
ENDROOT
BRANCH   1  12
ATOM      8  C   UNL     1       7.763  26.207  15.177  0.00  0.00    +0.133 A 
ATOM      9  C   UNL     1       6.965  27.157  15.826  0.00  0.00    +0.078 A 
ATOM     10  C   UNL     1       6.908  27.184  17.237  0.00  0.00    +0.017 A 
ATOM     11  C   UNL     1       7.649  26.256  17.981  0.00  0.00    +0.009 A 
ATOM     12  C   UNL     1       8.430  25.280  17.339  0.00  0.00    -0.013 A 
ATOM     13  C   UNL     1       8.501  25.274  15.925  0.00  0.00    +0.055 A 
BRANCH   9  14
ATOM     14  C   UNL     1       6.171  28.178  15.006  0.00  0.00    +0.245 C 
ATOM     15  O   UNL     1       5.133  27.886  14.539  0.00  0.00    -0.270 OA
ATOM     16  N   UNL     1       6.694  29.511  14.819  0.00  0.00    -0.325 N 
ATOM     17  H   UNL     1       7.452  29.730  15.161  0.00  0.00    +0.145 HD
ATOM     18  H   UNL     1       6.247  30.087  14.364  0.00  0.00    +0.145 HD
ENDBRANCH   9  14
BRANCH   8  20
ATOM     19  C   UNL     1       7.256  25.043  13.109  0.00  0.00    +0.277 C 
ATOM     20  O   UNL     1       7.813  26.202  13.731  0.00  0.00    -0.494 OA
ENDBRANCH   8  20
ENDBRANCH   1  12
BRANCH   4  21
ATOM     21  C   UNL     1      12.625  23.356  19.304  0.00  0.00    -0.016 A 
ATOM     22  C   UNL     1      13.222  24.040  20.377  0.00  0.00    +0.010 A 
ATOM     23  C   UNL     1      14.622  23.963  20.572  0.00  0.00    +0.024 A 
ATOM     24  C   UNL     1      15.410  23.196  19.706  0.00  0.00    +0.030 A 
ATOM     25  C   UNL     1      14.811  22.499  18.643  0.00  0.00    +0.024 A 
ATOM     26  C   UNL     1      13.425  22.570  18.459  0.00  0.00    +0.010 A 
BRANCH  24  27
ATOM     27  N   UNL     1      16.882  23.100  19.897  0.00  0.00    -0.327 N 
ATOM     28  C   UNL     1      17.822  23.497  18.808  0.00  0.00    +0.120 C 
ATOM     29  C   UNL     1      19.233  23.779  19.337  0.00  0.00    +0.100 C 
ATOM     30  N   UNL     1      19.768  22.685  20.080  0.00  0.00    -0.313 NA
ATOM     31  H   UNL     1      19.926  22.021  19.543  0.00  0.00    +0.122 HD
ATOM     32  C   UNL     1      18.909  22.255  21.123  0.00  0.00    +0.100 C 
ATOM     33  C   UNL     1      17.494  21.940  20.625  0.00  0.00    +0.120 C 
ENDBRANCH  24  27
ENDBRANCH   4  21
TORSDOF 5
ENDMDL
MODEL 2
REMARK VINA RESULT:      -8.5      6.567      9.966
REMARK  Name = 6T6D_MM8.pdb
REMARK  7 active torsions:
REMARK  status: ('A' for Active; 'I' for Inactive)
REMARK    1  A    between atoms: _1  and  _2
REMARK    2  A    between atoms: _2  and  _3
REMARK    3  A    between atoms: _5  and  _6
REMARK    4  A    between atoms: _10  and  _11
REMARK    5  A    between atoms: _14  and  _15
REMARK    6  A    between atoms: _23  and  _24
REMARK    7  A    between atoms: _27  and  _28
REMARK                            x       y       z     vdW  Elec       q    Type
REMARK                         _______ _______ _______ _____ _____    ______ ____
ROOT
ATOM      1  C   UNL     1      16.031  22.968  16.999  0.00  0.00    +0.004 A 
ATOM      2  C   UNL     1      16.042  24.072  16.117  0.00  0.00    -0.032 A 
ATOM      3  C   UNL     1      15.633  25.447  16.608  0.00  0.00    +0.045 C 
ATOM      4  C   UNL     1      16.439  23.853  14.762  0.00  0.00    +0.004 A 
ATOM      5  C   UNL     1      16.809  22.590  14.369  0.00  0.00    +0.119 A 
ATOM      6  N   UNL     1      16.792  21.566  15.224  0.00  0.00    -0.262 NA
ATOM      7  C   UNL     1      16.419  21.742  16.496  0.00  0.00    +0.119 A 
ENDROOT
BRANCH   1  12
ATOM      8  C   UNL     1      16.152  23.371  20.733  0.00  0.00    +0.133 A 
ATOM      9  C   UNL     1      14.811  23.134  21.064  0.00  0.00    +0.078 A 
ATOM     10  C   UNL     1      13.878  22.834  20.049  0.00  0.00    +0.017 A 
ATOM     11  C   UNL     1      14.297  22.779  18.712  0.00  0.00    +0.009 A 
ATOM     12  C   UNL     1      15.633  23.043  18.366  0.00  0.00    -0.013 A 
ATOM     13  C   UNL     1      16.569  23.319  19.393  0.00  0.00    +0.055 A 
BRANCH   9  14
ATOM     14  C   UNL     1      14.365  23.181  22.528  0.00  0.00    +0.245 C 
ATOM     15  O   UNL     1      13.402  23.781  22.836  0.00  0.00    -0.270 OA
ATOM     16  N   UNL     1      15.124  22.473  23.533  0.00  0.00    -0.325 N 
ATOM     17  H   UNL     1      15.827  22.032  23.311  0.00  0.00    +0.145 HD
ATOM     18  H   UNL     1      14.871  22.494  24.354  0.00  0.00    +0.145 HD
ENDBRANCH   9  14
BRANCH   8  20
ATOM     19  C   UNL     1      18.448  23.304  21.518  0.00  0.00    +0.277 C 
ATOM     20  O   UNL     1      17.094  23.669  21.790  0.00  0.00    -0.494 OA
ENDBRANCH   8  20
ENDBRANCH   1  12
BRANCH   4  21
ATOM     21  C   UNL     1      16.473  24.892  13.780  0.00  0.00    -0.016 A 
ATOM     22  C   UNL     1      17.682  25.300  13.189  0.00  0.00    +0.010 A 
ATOM     23  C   UNL     1      17.679  26.326  12.214  0.00  0.00    +0.024 A 
ATOM     24  C   UNL     1      16.474  26.925  11.828  0.00  0.00    +0.030 A 
ATOM     25  C   UNL     1      15.265  26.505  12.407  0.00  0.00    +0.024 A 
ATOM     26  C   UNL     1      15.271  25.483  13.364  0.00  0.00    +0.010 A 
BRANCH  24  27
ATOM     27  N   UNL     1      16.451  28.003  10.803  0.00  0.00    -0.327 N 
ATOM     28  C   UNL     1      17.658  28.842  10.548  0.00  0.00    +0.120 C 
ATOM     29  C   UNL     1      17.599  29.538   9.183  0.00  0.00    +0.100 C 
ATOM     30  N   UNL     1      16.412  30.312   9.014  0.00  0.00    -0.313 NA
ATOM     31  H   UNL     1      16.437  30.998   9.546  0.00  0.00    +0.122 HD
ATOM     32  C   UNL     1      15.230  29.568   9.258  0.00  0.00    +0.100 C 
ATOM     33  C   UNL     1      15.244  28.876  10.626  0.00  0.00    +0.120 C 
ENDBRANCH  24  27
ENDBRANCH   4  21
TORSDOF 5
ENDMDL
MODEL 3
REMARK VINA RESULT:      -8.3      6.461      9.564
REMARK  Name = 6T6D_MM8.pdb
REMARK  7 active torsions:
REMARK  status: ('A' for Active; 'I' for Inactive)
REMARK    1  A    between atoms: _1  and  _2
REMARK    2  A    between atoms: _2  and  _3
REMARK    3  A    between atoms: _5  and  _6
REMARK    4  A    between atoms: _10  and  _11
REMARK    5  A    between atoms: _14  and  _15
REMARK    6  A    between atoms: _23  and  _24
REMARK    7  A    between atoms: _27  and  _28
REMARK                            x       y       z     vdW  Elec       q    Type
REMARK                         _______ _______ _______ _____ _____    ______ ____
ROOT
ATOM      1  C   UNL     1      16.054  23.089  17.111  0.00  0.00    +0.004 A 
ATOM      2  C   UNL     1      16.046  24.171  16.203  0.00  0.00    -0.032 A 
ATOM      3  C   UNL     1      15.578  25.542  16.654  0.00  0.00    +0.045 C 
ATOM      4  C   UNL     1      16.480  23.936  14.863  0.00  0.00    +0.004 A 
ATOM      5  C   UNL     1      16.903  22.678  14.508  0.00  0.00    +0.119 A 
ATOM      6  N   UNL     1      16.903  21.674  15.386  0.00  0.00    -0.262 NA
ATOM      7  C   UNL     1      16.496  21.866  16.645  0.00  0.00    +0.119 A 
ENDROOT
BRANCH   1  12
ATOM      8  C   UNL     1      13.906  22.938  20.190  0.00  0.00    +0.133 A 
ATOM      9  C   UNL     1      14.799  23.421  21.155  0.00  0.00    +0.078 A 
ATOM     10  C   UNL     1      16.105  23.802  20.777  0.00  0.00    +0.017 A 
ATOM     11  C   UNL     1      16.503  23.690  19.438  0.00  0.00    +0.009 A 
ATOM     12  C   UNL     1      15.623  23.180  18.467  0.00  0.00    -0.013 A 
ATOM     13  C   UNL     1      14.307  22.823  18.849  0.00  0.00    +0.055 A 
BRANCH   9  14
ATOM     14  C   UNL     1      14.352  23.554  22.613  0.00  0.00    +0.245 C 
ATOM     15  O   UNL     1      14.914  22.967  23.463  0.00  0.00    -0.270 OA
ATOM     16  N   UNL     1      13.244  24.418  22.948  0.00  0.00    -0.325 N 
ATOM     17  H   UNL     1      12.832  24.851  22.331  0.00  0.00    +0.145 HD
ATOM     18  H   UNL     1      12.996  24.498  23.767  0.00  0.00    +0.145 HD
ENDBRANCH   9  14
BRANCH   8  20
ATOM     19  C   UNL     1      11.513  23.170  19.855  0.00  0.00    +0.277 C 
ATOM     20  O   UNL     1      12.570  22.560  20.598  0.00  0.00    -0.494 OA
ENDBRANCH   8  20
ENDBRANCH   1  12
BRANCH   4  21
ATOM     21  C   UNL     1      16.500  24.953  13.858  0.00  0.00    -0.016 A 
ATOM     22  C   UNL     1      17.699  25.341  13.233  0.00  0.00    +0.010 A 
ATOM     23  C   UNL     1      17.682  26.345  12.236  0.00  0.00    +0.024 A 
ATOM     24  C   UNL     1      16.473  26.943  11.862  0.00  0.00    +0.030 A 
ATOM     25  C   UNL     1      15.273  26.543  12.474  0.00  0.00    +0.024 A 
ATOM     26  C   UNL     1      15.293  25.542  13.454  0.00  0.00    +0.010 A 
BRANCH  24  27
ATOM     27  N   UNL     1      16.434  27.998  10.814  0.00  0.00    -0.327 N 
ATOM     28  C   UNL     1      17.639  28.828  10.520  0.00  0.00    +0.120 C 
ATOM     29  C   UNL     1      17.558  29.495   9.142  0.00  0.00    +0.100 C 
ATOM     30  N   UNL     1      16.371  30.267   8.976  0.00  0.00    -0.313 NA
ATOM     31  H   UNL     1      16.406  30.965   9.492  0.00  0.00    +0.122 HD
ATOM     32  C   UNL     1      15.191  29.532   9.256  0.00  0.00    +0.100 C 
ATOM     33  C   UNL     1      15.227  28.870  10.638  0.00  0.00    +0.120 C 
ENDBRANCH  24  27
ENDBRANCH   4  21
TORSDOF 5
ENDMDL
MODEL 4
REMARK VINA RESULT:      -8.3      5.717      9.006
REMARK  Name = 6T6D_MM8.pdb
REMARK  7 active torsions:
REMARK  status: ('A' for Active; 'I' for Inactive)
REMARK    1  A    between atoms: _1  and  _2
REMARK    2  A    between atoms: _2  and  _3
REMARK    3  A    between atoms: _5  and  _6
REMARK    4  A    between atoms: _10  and  _11
REMARK    5  A    between atoms: _14  and  _15
REMARK    6  A    between atoms: _23  and  _24
REMARK    7  A    between atoms: _27  and  _28
REMARK                            x       y       z     vdW  Elec       q    Type
REMARK                         _______ _______ _______ _____ _____    ______ ____
ROOT
ATOM      1  C   UNL     1      16.778  22.938  20.636  0.00  0.00    +0.004 A 
ATOM      2  C   UNL     1      16.751  23.817  19.531  0.00  0.00    -0.032 A 
ATOM      3  C   UNL     1      15.539  24.695  19.282  0.00  0.00    +0.045 C 
ATOM      4  C   UNL     1      17.885  23.849  18.662  0.00  0.00    +0.004 A 
ATOM      5  C   UNL     1      18.961  23.042  18.937  0.00  0.00    +0.119 A 
ATOM      6  N   UNL     1      18.961  22.222  19.989  0.00  0.00    -0.262 NA
ATOM      7  C   UNL     1      17.911  22.168  20.815  0.00  0.00    +0.119 A 
ENDROOT
BRANCH   1  12
ATOM      8  C   UNL     1      13.404  22.161  22.096  0.00  0.00    +0.133 A 
ATOM      9  C   UNL     1      13.598  22.556  23.426  0.00  0.00    +0.078 A 
ATOM     10  C   UNL     1      14.844  23.086  23.828  0.00  0.00    +0.017 A 
ATOM     11  C   UNL     1      15.882  23.209  22.895  0.00  0.00    +0.009 A 
ATOM     12  C   UNL     1      15.706  22.789  21.565  0.00  0.00    -0.013 A 
ATOM     13  C   UNL     1      14.447  22.282  21.163  0.00  0.00    +0.055 A 
BRANCH   9  14
ATOM     14  C   UNL     1      12.454  22.432  24.436  0.00  0.00    +0.245 C 
ATOM     15  O   UNL     1      12.651  21.983  25.504  0.00  0.00    -0.270 OA
ATOM     16  N   UNL     1      11.130  22.884  24.079  0.00  0.00    -0.325 N 
ATOM     17  H   UNL     1      10.982  23.215  23.300  0.00  0.00    +0.145 HD
ATOM     18  H   UNL     1      10.488  22.821  24.648  0.00  0.00    +0.145 HD
ENDBRANCH   9  14
BRANCH   8  20
ATOM     19  C   UNL     1      11.611  22.118  20.461  0.00  0.00    +0.277 C 
ATOM     20  O   UNL     1      12.118  21.628  21.703  0.00  0.00    -0.494 OA
ENDBRANCH   8  20
ENDBRANCH   1  12
BRANCH   4  21
ATOM     21  C   UNL     1      17.961  24.689  17.507  0.00  0.00    -0.016 A 
ATOM     22  C   UNL     1      18.750  25.852  17.498  0.00  0.00    +0.010 A 
ATOM     23  C   UNL     1      18.809  26.657  16.335  0.00  0.00    +0.024 A 
ATOM     24  C   UNL     1      18.094  26.288  15.190  0.00  0.00    +0.030 A 
ATOM     25  C   UNL     1      17.319  25.116  15.193  0.00  0.00    +0.024 A 
ATOM     26  C   UNL     1      17.270  24.318  16.342  0.00  0.00    +0.010 A 
BRANCH  24  27
ATOM     27  N   UNL     1      18.146  27.119  13.957  0.00  0.00    -0.327 N 
ATOM     28  C   UNL     1      18.265  28.604  14.040  0.00  0.00    +0.120 C 
ATOM     29  C   UNL     1      18.773  29.216  12.729  0.00  0.00    +0.100 C 
ATOM     30  N   UNL     1      17.976  28.844  11.606  0.00  0.00    -0.313 NA
ATOM     31  H   UNL     1      17.196  29.219  11.668  0.00  0.00    +0.122 HD
ATOM     32  C   UNL     1      17.817  27.441  11.484  0.00  0.00    +0.100 C 
ATOM     33  C   UNL     1      17.287  26.797  12.770  0.00  0.00    +0.120 C 
ENDBRANCH  24  27
ENDBRANCH   4  21
TORSDOF 5
ENDMDL
MODEL 5
REMARK VINA RESULT:      -8.2      4.314     10.436
REMARK  Name = 6T6D_MM8.pdb
REMARK  7 active torsions:
REMARK  status: ('A' for Active; 'I' for Inactive)
REMARK    1  A    between atoms: _1  and  _2
REMARK    2  A    between atoms: _2  and  _3
REMARK    3  A    between atoms: _5  and  _6
REMARK    4  A    between atoms: _10  and  _11
REMARK    5  A    between atoms: _14  and  _15
REMARK    6  A    between atoms: _23  and  _24
REMARK    7  A    between atoms: _27  and  _28
REMARK                            x       y       z     vdW  Elec       q    Type
REMARK                         _______ _______ _______ _____ _____    ______ ____
ROOT
ATOM      1  C   UNL     1      14.735  23.116  16.421  0.00  0.00    +0.004 A 
ATOM      2  C   UNL     1      13.566  23.908  16.404  0.00  0.00    -0.032 A 
ATOM      3  C   UNL     1      13.195  24.750  17.610  0.00  0.00    +0.045 C 
ATOM      4  C   UNL     1      12.750  23.887  15.231  0.00  0.00    +0.004 A 
ATOM      5  C   UNL     1      13.135  23.115  14.162  0.00  0.00    +0.119 A 
ATOM      6  N   UNL     1      14.246  22.378  14.205  0.00  0.00    -0.262 NA
ATOM      7  C   UNL     1      15.024  22.375  15.292  0.00  0.00    +0.119 A 
ENDROOT
BRANCH   1  12
ATOM      8  C   UNL     1      17.713  23.610  18.659  0.00  0.00    +0.133 A 
ATOM      9  C   UNL     1      17.371  22.782  19.736  0.00  0.00    +0.078 A 
ATOM     10  C   UNL     1      16.159  22.058  19.709  0.00  0.00    +0.017 A 
ATOM     11  C   UNL     1      15.302  22.176  18.606  0.00  0.00    +0.009 A 
ATOM     12  C   UNL     1      15.623  23.026  17.534  0.00  0.00    -0.013 A 
ATOM     13  C   UNL     1      16.851  23.730  17.556  0.00  0.00    +0.055 A 
BRANCH   9  14
ATOM     14  C   UNL     1      18.320  22.648  20.930  0.00  0.00    +0.245 C 
ATOM     15  O   UNL     1      18.944  21.664  21.084  0.00  0.00    -0.270 OA
ATOM     16  N   UNL     1      18.460  23.741  21.862  0.00  0.00    -0.325 N 
ATOM     17  H   UNL     1      18.008  24.464  21.752  0.00  0.00    +0.145 HD
ATOM     18  H   UNL     1      18.998  23.669  22.529  0.00  0.00    +0.145 HD
ENDBRANCH   9  14
BRANCH   8  20
ATOM     19  C   UNL     1      19.033  25.479  17.847  0.00  0.00    +0.277 C 
ATOM     20  O   UNL     1      18.964  24.337  18.703  0.00  0.00    -0.494 OA
ENDBRANCH   8  20
ENDBRANCH   1  12
BRANCH   4  21
ATOM     21  C   UNL     1      11.539  24.637  15.108  0.00  0.00    -0.016 A 
ATOM     22  C   UNL     1      11.556  26.013  14.819  0.00  0.00    +0.010 A 
ATOM     23  C   UNL     1      10.338  26.723  14.696  0.00  0.00    +0.024 A 
ATOM     24  C   UNL     1       9.117  26.056  14.849  0.00  0.00    +0.030 A 
ATOM     25  C   UNL     1       9.100  24.677  15.122  0.00  0.00    +0.024 A 
ATOM     26  C   UNL     1      10.307  23.976  15.233  0.00  0.00    +0.010 A 
BRANCH  24  27
ATOM     27  N   UNL     1       7.827  26.785  14.721  0.00  0.00    -0.327 N 
ATOM     28  C   UNL     1       6.861  26.442  13.636  0.00  0.00    +0.120 C 
ATOM     29  C   UNL     1       5.444  26.942  13.946  0.00  0.00    +0.100 C 
ATOM     30  N   UNL     1       5.405  28.341  14.223  0.00  0.00    -0.313 NA
ATOM     31  H   UNL     1       5.578  28.783  13.496  0.00  0.00    +0.122 HD
ATOM     32  C   UNL     1       6.315  28.727  15.239  0.00  0.00    +0.100 C 
ATOM     33  C   UNL     1       7.748  28.265  14.950  0.00  0.00    +0.120 C 
ENDBRANCH  24  27
ENDBRANCH   4  21
TORSDOF 5
ENDMDL
MODEL 6
REMARK VINA RESULT:      -8.2      5.619      7.651
REMARK  Name = 6T6D_MM8.pdb
REMARK  7 active torsions:
REMARK  status: ('A' for Active; 'I' for Inactive)
REMARK    1  A    between atoms: _1  and  _2
REMARK    2  A    between atoms: _2  and  _3
REMARK    3  A    between atoms: _5  and  _6
REMARK    4  A    between atoms: _10  and  _11
REMARK    5  A    between atoms: _14  and  _15
REMARK    6  A    between atoms: _23  and  _24
REMARK    7  A    between atoms: _27  and  _28
REMARK                            x       y       z     vdW  Elec       q    Type
REMARK                         _______ _______ _______ _____ _____    ______ ____
ROOT
ATOM      1  C   UNL     1      16.519  23.662  14.695  0.00  0.00    +0.004 A 
ATOM      2  C   UNL     1      16.035  23.763  16.018  0.00  0.00    -0.032 A 
ATOM      3  C   UNL     1      15.552  25.097  16.556  0.00  0.00    +0.045 C 
ATOM      4  C   UNL     1      16.021  22.585  16.827  0.00  0.00    +0.004 A 
ATOM      5  C   UNL     1      16.460  21.400  16.291  0.00  0.00    +0.119 A 
ATOM      6  N   UNL     1      16.910  21.332  15.036  0.00  0.00    -0.262 NA
ATOM      7  C   UNL     1      16.939  22.420  14.260  0.00  0.00    +0.119 A 
ENDROOT
BRANCH   1  12
ATOM      8  C   UNL     1      15.585  26.586  12.528  0.00  0.00    +0.133 A 
ATOM      9  C   UNL     1      16.829  26.900  11.964  0.00  0.00    +0.078 A 
ATOM     10  C   UNL     1      17.966  26.135  12.299  0.00  0.00    +0.017 A 
ATOM     11  C   UNL     1      17.848  25.066  13.198  0.00  0.00    +0.009 A 
ATOM     12  C   UNL     1      16.610  24.761  13.792  0.00  0.00    -0.013 A 
ATOM     13  C   UNL     1      15.468  25.518  13.432  0.00  0.00    +0.055 A 
BRANCH   9  14
ATOM     14  C   UNL     1      16.947  28.059  10.970  0.00  0.00    +0.245 C 
ATOM     15  O   UNL     1      17.608  28.996  11.227  0.00  0.00    -0.270 OA
ATOM     16  N   UNL     1      16.256  27.992   9.704  0.00  0.00    -0.325 N 
ATOM     17  H   UNL     1      15.773  27.307   9.511  0.00  0.00    +0.145 HD
ATOM     18  H   UNL     1      16.326  28.639   9.142  0.00  0.00    +0.145 HD
ENDBRANCH   9  14
BRANCH   8  20
ATOM     19  C   UNL     1      14.045  28.364  13.124  0.00  0.00    +0.277 C 
ATOM     20  O   UNL     1      14.430  27.378  12.165  0.00  0.00    -0.494 OA
ENDBRANCH   8  20
ENDBRANCH   1  12
BRANCH   4  21
ATOM     21  C   UNL     1      15.568  22.574  18.183  0.00  0.00    -0.016 A 
ATOM     22  C   UNL     1      14.265  22.163  18.516  0.00  0.00    +0.010 A 
ATOM     23  C   UNL     1      13.851  22.156  19.869  0.00  0.00    +0.024 A 
ATOM     24  C   UNL     1      14.740  22.545  20.877  0.00  0.00    +0.030 A 
ATOM     25  C   UNL     1      16.048  22.939  20.547  0.00  0.00    +0.024 A 
ATOM     26  C   UNL     1      16.457  22.935  19.207  0.00  0.00    +0.010 A 
BRANCH  24  27
ATOM     27  N   UNL     1      14.325  22.541  22.306  0.00  0.00    -0.327 N 
ATOM     28  C   UNL     1      12.976  23.034  22.711  0.00  0.00    +0.120 C 
ATOM     29  C   UNL     1      12.566  22.521  24.097  0.00  0.00    +0.100 C 
ATOM     30  N   UNL     1      13.530  22.829  25.102  0.00  0.00    -0.313 NA
ATOM     31  H   UNL     1      13.537  23.686  25.242  0.00  0.00    +0.122 HD
ATOM     32  C   UNL     1      14.837  22.395  24.764  0.00  0.00    +0.100 C 
ATOM     33  C   UNL     1      15.290  22.910  23.393  0.00  0.00    +0.120 C 
ENDBRANCH  24  27
ENDBRANCH   4  21
TORSDOF 5
ENDMDL
MODEL 7
REMARK VINA RESULT:      -8.1      7.326      8.683
REMARK  Name = 6T6D_MM8.pdb
REMARK  7 active torsions:
REMARK  status: ('A' for Active; 'I' for Inactive)
REMARK    1  A    between atoms: _1  and  _2
REMARK    2  A    between atoms: _2  and  _3
REMARK    3  A    between atoms: _5  and  _6
REMARK    4  A    between atoms: _10  and  _11
REMARK    5  A    between atoms: _14  and  _15
REMARK    6  A    between atoms: _23  and  _24
REMARK    7  A    between atoms: _27  and  _28
REMARK                            x       y       z     vdW  Elec       q    Type
REMARK                         _______ _______ _______ _____ _____    ______ ____
ROOT
ATOM      1  C   UNL     1      15.621  27.144  12.549  0.00  0.00    +0.004 A 
ATOM      2  C   UNL     1      16.272  26.453  13.595  0.00  0.00    -0.032 A 
ATOM      3  C   UNL     1      17.770  26.597  13.789  0.00  0.00    +0.045 C 
ATOM      4  C   UNL     1      15.487  25.620  14.449  0.00  0.00    +0.004 A 
ATOM      5  C   UNL     1      14.133  25.531  14.237  0.00  0.00    +0.119 A 
ATOM      6  N   UNL     1      13.543  26.197  13.243  0.00  0.00    -0.262 NA
ATOM      7  C   UNL     1      14.255  26.979  12.425  0.00  0.00    +0.119 A 
ENDROOT
BRANCH   1  12
ATOM      8  C   UNL     1      17.143  30.171  10.925  0.00  0.00    +0.133 A 
ATOM      9  C   UNL     1      17.570  29.627   9.706  0.00  0.00    +0.078 A 
ATOM     10  C   UNL     1      17.342  28.262   9.427  0.00  0.00    +0.017 A 
ATOM     11  C   UNL     1      16.694  27.456  10.374  0.00  0.00    +0.009 A 
ATOM     12  C   UNL     1      16.288  27.986  11.611  0.00  0.00    -0.013 A 
ATOM     13  C   UNL     1      16.497  29.362  11.874  0.00  0.00    +0.055 A 
BRANCH   9  14
ATOM     14  C   UNL     1      18.263  30.517   8.672  0.00  0.00    +0.245 C 
ATOM     15  O   UNL     1      19.365  30.287   8.334  0.00  0.00    -0.270 OA
ATOM     16  N   UNL     1      17.554  31.636   8.097  0.00  0.00    -0.325 N 
ATOM     17  H   UNL     1      16.747  31.807   8.339  0.00  0.00    +0.145 HD
ATOM     18  H   UNL     1      17.940  32.133   7.511  0.00  0.00    +0.145 HD
ENDBRANCH   9  14
BRANCH   8  20
ATOM     19  C   UNL     1      16.237  32.311  11.625  0.00  0.00    +0.277 C 
ATOM     20  O   UNL     1      17.380  31.574  11.187  0.00  0.00    -0.494 OA
ENDBRANCH   8  20
ENDBRANCH   1  12
BRANCH   4  21
ATOM     21  C   UNL     1      16.042  24.864  15.529  0.00  0.00    -0.016 A 
ATOM     22  C   UNL     1      16.745  23.669  15.300  0.00  0.00    +0.010 A 
ATOM     23  C   UNL     1      17.289  22.950  16.391  0.00  0.00    +0.024 A 
ATOM     24  C   UNL     1      17.138  23.433  17.696  0.00  0.00    +0.030 A 
ATOM     25  C   UNL     1      16.449  24.637  17.923  0.00  0.00    +0.024 A 
ATOM     26  C   UNL     1      15.921  25.350  16.840  0.00  0.00    +0.010 A 
BRANCH  24  27
ATOM     27  N   UNL     1      17.704  22.693  18.855  0.00  0.00    -0.327 N 
ATOM     28  C   UNL     1      16.980  22.644  20.158  0.00  0.00    +0.120 C 
ATOM     29  C   UNL     1      17.457  21.483  21.041  0.00  0.00    +0.100 C 
ATOM     30  N   UNL     1      18.867  21.504  21.257  0.00  0.00    -0.313 NA
ATOM     31  H   UNL     1      19.072  22.184  21.757  0.00  0.00    +0.122 HD
ATOM     32  C   UNL     1      19.609  21.565  20.050  0.00  0.00    +0.100 C 
ATOM     33  C   UNL     1      19.174  22.729  19.152  0.00  0.00    +0.120 C 
ENDBRANCH  24  27
ENDBRANCH   4  21
TORSDOF 5
ENDMDL
MODEL 8
REMARK VINA RESULT:      -8.0      5.581      7.893
REMARK  Name = 6T6D_MM8.pdb
REMARK  7 active torsions:
REMARK  status: ('A' for Active; 'I' for Inactive)
REMARK    1  A    between atoms: _1  and  _2
REMARK    2  A    between atoms: _2  and  _3
REMARK    3  A    between atoms: _5  and  _6
REMARK    4  A    between atoms: _10  and  _11
REMARK    5  A    between atoms: _14  and  _15
REMARK    6  A    between atoms: _23  and  _24
REMARK    7  A    between atoms: _27  and  _28
REMARK                            x       y       z     vdW  Elec       q    Type
REMARK                         _______ _______ _______ _____ _____    ______ ____
ROOT
ATOM      1  C   UNL     1      17.169  24.266  17.638  0.00  0.00    +0.004 A 
ATOM      2  C   UNL     1      16.230  23.957  18.646  0.00  0.00    -0.032 A 
ATOM      3  C   UNL     1      14.747  24.159  18.397  0.00  0.00    +0.045 C 
ATOM      4  C   UNL     1      16.715  23.459  19.895  0.00  0.00    +0.004 A 
ATOM      5  C   UNL     1      18.066  23.285  20.066  0.00  0.00    +0.119 A 
ATOM      6  N   UNL     1      18.931  23.583  19.095  0.00  0.00    -0.262 NA
ATOM      7  C   UNL     1      18.505  24.055  17.919  0.00  0.00    +0.119 A 
ENDROOT
BRANCH   1  12
ATOM      8  C   UNL     1      16.143  26.645  14.916  0.00  0.00    +0.133 A 
ATOM      9  C   UNL     1      16.099  25.779  13.815  0.00  0.00    +0.078 A 
ATOM     10  C   UNL     1      16.402  24.411  13.985  0.00  0.00    +0.017 A 
ATOM     11  C   UNL     1      16.749  23.925  15.253  0.00  0.00    +0.009 A 
ATOM     12  C   UNL     1      16.824  24.792  16.357  0.00  0.00    -0.013 A 
ATOM     13  C   UNL     1      16.495  26.158  16.186  0.00  0.00    +0.055 A 
BRANCH   9  14
ATOM     14  C   UNL     1      15.704  26.314  12.436  0.00  0.00    +0.245 C 
ATOM     15  O   UNL     1      16.521  26.478  11.607  0.00  0.00    -0.270 OA
ATOM     16  N   UNL     1      14.319  26.603  12.149  0.00  0.00    -0.325 N 
ATOM     17  H   UNL     1      13.718  26.482  12.751  0.00  0.00    +0.145 HD
ATOM     18  H   UNL     1      14.095  26.897  11.373  0.00  0.00    +0.145 HD
ENDBRANCH   9  14
BRANCH   8  20
ATOM     19  C   UNL     1      14.651  28.496  15.403  0.00  0.00    +0.277 C 
ATOM     20  O   UNL     1      15.822  28.042  14.722  0.00  0.00    -0.494 OA
ENDBRANCH   8  20
ENDBRANCH   1  12
BRANCH   4  21
ATOM     21  C   UNL     1      15.857  23.128  20.990  0.00  0.00    -0.016 A 
ATOM     22  C   UNL     1      14.619  22.495  20.784  0.00  0.00    +0.010 A 
ATOM     23  C   UNL     1      13.798  22.174  21.892  0.00  0.00    +0.024 A 
ATOM     24  C   UNL     1      14.222  22.474  23.191  0.00  0.00    +0.030 A 
ATOM     25  C   UNL     1      15.467  23.092  23.397  0.00  0.00    +0.024 A 
ATOM     26  C   UNL     1      16.281  23.399  22.300  0.00  0.00    +0.010 A 
BRANCH  24  27
ATOM     27  N   UNL     1      13.375  22.141  24.367  0.00  0.00    -0.327 N 
ATOM     28  C   UNL     1      12.064  21.450  24.194  0.00  0.00    +0.120 C 
ATOM     29  C   UNL     1      11.587  20.785  25.491  0.00  0.00    +0.100 C 
ATOM     30  N   UNL     1      11.525  21.699  26.584  0.00  0.00    -0.313 NA
ATOM     31  H   UNL     1      10.884  22.269  26.448  0.00  0.00    +0.122 HD
ATOM     32  C   UNL     1      12.742  22.397  26.788  0.00  0.00    +0.100 C 
ATOM     33  C   UNL     1      13.238  23.095  25.517  0.00  0.00    +0.120 C 
ENDBRANCH  24  27
ENDBRANCH   4  21
TORSDOF 5
ENDMDL
MODEL 9
REMARK VINA RESULT:      -7.8      5.827      9.039
REMARK  Name = 6T6D_MM8.pdb
REMARK  7 active torsions:
REMARK  status: ('A' for Active; 'I' for Inactive)
REMARK    1  A    between atoms: _1  and  _2
REMARK    2  A    between atoms: _2  and  _3
REMARK    3  A    between atoms: _5  and  _6
REMARK    4  A    between atoms: _10  and  _11
REMARK    5  A    between atoms: _14  and  _15
REMARK    6  A    between atoms: _23  and  _24
REMARK    7  A    between atoms: _27  and  _28
REMARK                            x       y       z     vdW  Elec       q    Type
REMARK                         _______ _______ _______ _____ _____    ______ ____
ROOT
ATOM      1  C   UNL     1      15.905  23.027  19.182  0.00  0.00    +0.004 A 
ATOM      2  C   UNL     1      15.785  23.826  18.024  0.00  0.00    -0.032 A 
ATOM      3  C   UNL     1      14.460  24.480  17.681  0.00  0.00    +0.045 C 
ATOM      4  C   UNL     1      16.935  23.992  17.192  0.00  0.00    +0.004 A 
ATOM      5  C   UNL     1      18.114  23.387  17.552  0.00  0.00    +0.119 A 
ATOM      6  N   UNL     1      18.200  22.639  18.653  0.00  0.00    -0.262 NA
ATOM      7  C   UNL     1      17.138  22.463  19.446  0.00  0.00    +0.119 A 
ENDROOT
BRANCH   1  12
ATOM      8  C   UNL     1      13.798  22.928  22.292  0.00  0.00    +0.133 A 
ATOM      9  C   UNL     1      12.710  22.168  21.845  0.00  0.00    +0.078 A 
ATOM     10  C   UNL     1      12.686  21.685  20.519  0.00  0.00    +0.017 A 
ATOM     11  C   UNL     1      13.750  21.973  19.653  0.00  0.00    +0.009 A 
ATOM     12  C   UNL     1      14.832  22.760  20.083  0.00  0.00    -0.013 A 
ATOM     13  C   UNL     1      14.862  23.220  21.422  0.00  0.00    +0.055 A 
BRANCH   9  14
ATOM     14  C   UNL     1      11.559  21.844  22.802  0.00  0.00    +0.245 C 
ATOM     15  O   UNL     1      11.196  20.734  22.940  0.00  0.00    -0.270 OA
ATOM     16  N   UNL     1      10.927  22.905  23.550  0.00  0.00    -0.325 N 
ATOM     17  H   UNL     1      11.191  23.717  23.455  0.00  0.00    +0.145 HD
ATOM     18  H   UNL     1      10.285  22.724  24.092  0.00  0.00    +0.145 HD
ENDBRANCH   9  14
BRANCH   8  20
ATOM     19  C   UNL     1      14.719  22.737  24.530  0.00  0.00    +0.277 C 
ATOM     20  O   UNL     1      13.807  23.407  23.657  0.00  0.00    -0.494 OA
ENDBRANCH   8  20
ENDBRANCH   1  12
BRANCH   4  21
ATOM     21  C   UNL     1      16.924  24.766  15.989  0.00  0.00    -0.016 A 
ATOM     22  C   UNL     1      17.159  26.152  16.009  0.00  0.00    +0.010 A 
ATOM     23  C   UNL     1      17.150  26.886  14.799  0.00  0.00    +0.024 A 
ATOM     24  C   UNL     1      16.920  26.233  13.583  0.00  0.00    +0.030 A 
ATOM     25  C   UNL     1      16.702  24.845  13.561  0.00  0.00    +0.024 A 
ATOM     26  C   UNL     1      16.722  24.120  14.760  0.00  0.00    +0.010 A 
BRANCH  24  27
ATOM     27  N   UNL     1      16.910  26.987  12.300  0.00  0.00    -0.327 N 
ATOM     28  C   UNL     1      17.419  28.388  12.234  0.00  0.00    +0.120 C 
ATOM     29  C   UNL     1      17.765  28.809  10.800  0.00  0.00    +0.100 C 
ATOM     30  N   UNL     1      16.673  28.634   9.900  0.00  0.00    -0.313 NA
ATOM     31  H   UNL     1      16.048  29.205  10.090  0.00  0.00    +0.122 HD
ATOM     32  C   UNL     1      16.138  27.321   9.930  0.00  0.00    +0.100 C 
ATOM     33  C   UNL     1      15.758  26.876  11.347  0.00  0.00    +0.120 C 
ENDBRANCH  24  27
ENDBRANCH   4  21
TORSDOF 5
ENDMDL
