MODEL 1
REMARK VINA RESULT:      -7.2      0.000      0.000
REMARK  Name = 4DYM_IYZ.pdb
REMARK  4 active torsions:
REMARK  status: ('A' for Active; 'I' for Inactive)
REMARK    1  A    between atoms: _11  and  _18
REMARK    2  A    between atoms: _11  and  _21
REMARK    3  A    between atoms: _12  and  _13
REMARK    4  A    between atoms: _14  and  _16
REMARK                            x       y       z     vdW  Elec       q    Type
REMARK                         _______ _______ _______ _____ _____    ______ ____
ROOT
ATOM      1  C   UNL     1      17.915  23.521  19.066  0.00  0.00    +0.104 A 
ATOM      2  N   UNL     1      16.926  23.630  20.045  0.00  0.00    -0.210 N 
ATOM      3  N   UNL     1      15.710  23.875  19.993  0.00  0.00    -0.147 NA
ATOM      4  C   UNL     1      14.904  23.906  21.082  0.00  0.00    +0.168 A 
ATOM      5  N   UNL     1      13.595  24.230  20.935  0.00  0.00    -0.219 NA
ATOM      6  C   UNL     1      15.440  23.612  22.343  0.00  0.00    +0.041 A 
ATOM      7  C   UNL     1      16.779  23.307  22.417  0.00  0.00    +0.042 A 
ATOM      8  C   UNL     1      17.544  23.318  21.255  0.00  0.00    +0.164 A 
ATOM      9  N   UNL     1      18.840  23.102  21.000  0.00  0.00    -0.223 NA
ATOM     10  C   UNL     1      19.066  23.187  19.682  0.00  0.00    +0.120 A 
ENDROOT
BRANCH   1  13
ATOM     11  C   UNL     1      17.252  22.767  15.501  0.00  0.00    +0.035 A 
ATOM     12  C   UNL     1      17.496  22.622  16.855  0.00  0.00    +0.004 A 
ATOM     13  C   UNL     1      17.651  23.717  17.710  0.00  0.00    +0.019 A 
ATOM     14  C   UNL     1      17.616  25.013  17.170  0.00  0.00    +0.002 A 
ATOM     15  C   UNL     1      17.381  25.175  15.792  0.00  0.00    +0.000 A 
ATOM     16  C   UNL     1      17.190  24.047  14.964  0.00  0.00    +0.003 A 
BRANCH  11  18
ATOM     17  C   UNL     1      17.877  20.252  14.877  0.00  0.00    +0.077 C 
ATOM     18  C   UNL     1      17.023  21.489  14.628  0.00  0.00    +0.173 C 
ATOM     19  O   UNL     1      16.129  21.430  13.780  0.00  0.00    -0.291 OA
ENDBRANCH  11  18
ENDBRANCH   1  13
BRANCH   5  20
ATOM     20  C   UNL     1      12.898  24.113  19.651  0.00  0.00    +0.114 C 
BRANCH  20  21
ATOM     21  C   UNL     1      12.318  22.702  19.414  0.00  0.00    +0.022 C 
ATOM     22  C   UNL     1      11.685  21.992  20.618  0.00  0.00    +0.002 C 
ATOM     23  C   UNL     1      10.780  22.606  19.562  0.00  0.00    +0.002 C 
ENDBRANCH  20  21
ENDBRANCH   5  20
TORSDOF 4
ENDMDL
MODEL 2
REMARK VINA RESULT:      -7.0     10.329     11.964
REMARK  Name = 4DYM_IYZ.pdb
REMARK  4 active torsions:
REMARK  status: ('A' for Active; 'I' for Inactive)
REMARK    1  A    between atoms: _11  and  _18
REMARK    2  A    between atoms: _11  and  _21
REMARK    3  A    between atoms: _12  and  _13
REMARK    4  A    between atoms: _14  and  _16
REMARK                            x       y       z     vdW  Elec       q    Type
REMARK                         _______ _______ _______ _____ _____    ______ ____
ROOT
ATOM      1  C   UNL     1       6.387  21.217  16.871  0.00  0.00    +0.104 A 
ATOM      2  N   UNL     1       6.380  20.930  15.505  0.00  0.00    -0.210 N 
ATOM      3  N   UNL     1       6.338  21.646  14.492  0.00  0.00    -0.147 NA
ATOM      4  C   UNL     1       6.372  21.159  13.227  0.00  0.00    +0.168 A 
ATOM      5  N   UNL     1       6.273  22.015  12.179  0.00  0.00    -0.219 NA
ATOM      6  C   UNL     1       6.498  19.778  13.024  0.00  0.00    +0.041 A 
ATOM      7  C   UNL     1       6.578  18.971  14.135  0.00  0.00    +0.042 A 
ATOM      8  C   UNL     1       6.514  19.546  15.401  0.00  0.00    +0.164 A 
ATOM      9  N   UNL     1       6.534  19.050  16.644  0.00  0.00    -0.223 NA
ATOM     10  C   UNL     1       6.494  20.050  17.535  0.00  0.00    +0.120 A 
ENDROOT
BRANCH   1  13
ATOM     11  C   UNL     1       6.194  24.031  19.271  0.00  0.00    +0.035 A 
ATOM     12  C   UNL     1       6.281  22.757  18.740  0.00  0.00    +0.004 A 
ATOM     13  C   UNL     1       6.320  22.521  17.362  0.00  0.00    +0.019 A 
ATOM     14  C   UNL     1       6.210  23.610  16.482  0.00  0.00    +0.002 A 
ATOM     15  C   UNL     1       6.109  24.911  17.009  0.00  0.00    +0.000 A 
ATOM     16  C   UNL     1       6.111  25.115  18.407  0.00  0.00    +0.003 A 
BRANCH  11  18
ATOM     17  C   UNL     1       6.992  23.206  21.678  0.00  0.00    +0.077 C 
ATOM     18  C   UNL     1       6.225  24.211  20.825  0.00  0.00    +0.173 C 
ATOM     19  O   UNL     1       5.695  25.175  21.382  0.00  0.00    -0.291 OA
ENDBRANCH  11  18
ENDBRANCH   1  13
BRANCH   5  20
ATOM     20  C   UNL     1       6.578  23.444  12.302  0.00  0.00    +0.114 C 
BRANCH  20  21
ATOM     21  C   UNL     1       5.328  24.335  12.143  0.00  0.00    +0.022 C 
ATOM     22  C   UNL     1       4.105  23.990  13.004  0.00  0.00    +0.002 C 
ATOM     23  C   UNL     1       4.973  25.175  13.394  0.00  0.00    +0.002 C 
ENDBRANCH  20  21
ENDBRANCH   5  20
TORSDOF 4
ENDMDL
MODEL 3
REMARK VINA RESULT:      -7.0     10.357     11.435
REMARK  Name = 4DYM_IYZ.pdb
REMARK  4 active torsions:
REMARK  status: ('A' for Active; 'I' for Inactive)
REMARK    1  A    between atoms: _11  and  _18
REMARK    2  A    between atoms: _11  and  _21
REMARK    3  A    between atoms: _12  and  _13
REMARK    4  A    between atoms: _14  and  _16
REMARK                            x       y       z     vdW  Elec       q    Type
REMARK                         _______ _______ _______ _____ _____    ______ ____
ROOT
ATOM      1  C   UNL     1       6.456  21.089  16.574  0.00  0.00    +0.104 A 
ATOM      2  N   UNL     1       6.516  22.436  16.211  0.00  0.00    -0.210 N 
ATOM      3  N   UNL     1       6.671  23.011  15.122  0.00  0.00    -0.147 NA
ATOM      4  C   UNL     1       6.668  24.358  14.978  0.00  0.00    +0.168 A 
ATOM      5  N   UNL     1       6.893  24.900  13.754  0.00  0.00    -0.219 NA
ATOM      6  C   UNL     1       6.443  25.170  16.098  0.00  0.00    +0.041 A 
ATOM      7  C   UNL     1       6.239  24.551  17.309  0.00  0.00    +0.042 A 
ATOM      8  C   UNL     1       6.278  23.162  17.378  0.00  0.00    +0.164 A 
ATOM      9  N   UNL     1       6.150  22.282  18.379  0.00  0.00    -0.223 NA
ATOM     10  C   UNL     1       6.221  21.032  17.899  0.00  0.00    +0.120 A 
ENDROOT
BRANCH   1  13
ATOM     11  C   UNL     1       6.489  19.296  13.334  0.00  0.00    +0.035 A 
ATOM     12  C   UNL     1       6.376  20.293  14.287  0.00  0.00    +0.004 A 
ATOM     13  C   UNL     1       6.601  20.057  15.647  0.00  0.00    +0.019 A 
ATOM     14  C   UNL     1       6.896  18.752  16.072  0.00  0.00    +0.002 A 
ATOM     15  C   UNL     1       7.002  17.726  15.114  0.00  0.00    +0.000 A 
ATOM     16  C   UNL     1       6.806  18.008  13.744  0.00  0.00    +0.003 A 
BRANCH  11  18
ATOM     17  C   UNL     1       7.320  20.537  11.124  0.00  0.00    +0.077 C 
ATOM     18  C   UNL     1       6.288  19.660  11.825  0.00  0.00    +0.173 C 
ATOM     19  O   UNL     1       5.347  19.212  11.165  0.00  0.00    -0.291 OA
ENDBRANCH  11  18
ENDBRANCH   1  13
BRANCH   5  20
ATOM     20  C   UNL     1       6.697  24.143  12.514  0.00  0.00    +0.114 C 
BRANCH  20  21
ATOM     21  C   UNL     1       5.237  24.187  12.015  0.00  0.00    +0.022 C 
ATOM     22  C   UNL     1       4.863  23.253  10.856  0.00  0.00    +0.002 C 
ATOM     23  C   UNL     1       4.432  22.888  12.267  0.00  0.00    +0.002 C 
ENDBRANCH  20  21
ENDBRANCH   5  20
TORSDOF 4
ENDMDL
MODEL 4
REMARK VINA RESULT:      -6.9      7.667      9.889
REMARK  Name = 4DYM_IYZ.pdb
REMARK  4 active torsions:
REMARK  status: ('A' for Active; 'I' for Inactive)
REMARK    1  A    between atoms: _11  and  _18
REMARK    2  A    between atoms: _11  and  _21
REMARK    3  A    between atoms: _12  and  _13
REMARK    4  A    between atoms: _14  and  _16
REMARK                            x       y       z     vdW  Elec       q    Type
REMARK                         _______ _______ _______ _____ _____    ______ ____
ROOT
ATOM      1  C   UNL     1       7.886  23.005  21.222  0.00  0.00    +0.104 A 
ATOM      2  N   UNL     1       7.198  23.474  20.102  0.00  0.00    -0.210 N 
ATOM      3  N   UNL     1       7.205  23.141  18.906  0.00  0.00    -0.147 NA
ATOM      4  C   UNL     1       6.423  23.718  17.962  0.00  0.00    +0.168 A 
ATOM      5  N   UNL     1       6.533  23.321  16.669  0.00  0.00    -0.219 NA
ATOM      6  C   UNL     1       5.519  24.722  18.336  0.00  0.00    +0.041 A 
ATOM      7  C   UNL     1       5.474  25.083  19.662  0.00  0.00    +0.042 A 
ATOM      8  C   UNL     1       6.327  24.458  20.567  0.00  0.00    +0.164 A 
ATOM      9  N   UNL     1       6.543  24.597  21.881  0.00  0.00    -0.223 NA
ATOM     10  C   UNL     1       7.453  23.703  22.290  0.00  0.00    +0.120 A 
ENDROOT
BRANCH   1  13
ATOM     11  C   UNL     1       9.299  19.581  21.220  0.00  0.00    +0.035 A 
ATOM     12  C   UNL     1       8.408  20.639  21.267  0.00  0.00    +0.004 A 
ATOM     13  C   UNL     1       8.818  21.970  21.149  0.00  0.00    +0.019 A 
ATOM     14  C   UNL     1      10.189  22.252  21.034  0.00  0.00    +0.002 A 
ATOM     15  C   UNL     1      11.108  21.186  20.996  0.00  0.00    +0.000 A 
ATOM     16  C   UNL     1      10.654  19.851  21.081  0.00  0.00    +0.003 A 
BRANCH  11  18
ATOM     17  C   UNL     1       8.003  17.541  20.094  0.00  0.00    +0.077 C 
ATOM     18  C   UNL     1       8.748  18.119  21.292  0.00  0.00    +0.173 C 
ATOM     19  O   UNL     1       8.947  17.393  22.270  0.00  0.00    -0.291 OA
ENDBRANCH  11  18
ENDBRANCH   1  13
BRANCH   5  20
ATOM     20  C   UNL     1       7.105  22.025  16.293  0.00  0.00    +0.114 C 
BRANCH  20  21
ATOM     21  C   UNL     1       6.058  20.891  16.288  0.00  0.00    +0.022 C 
ATOM     22  C   UNL     1       6.573  19.460  16.077  0.00  0.00    +0.002 C 
ATOM     23  C   UNL     1       6.173  19.903  17.474  0.00  0.00    +0.002 C 
ENDBRANCH  20  21
ENDBRANCH   5  20
TORSDOF 4
ENDMDL
MODEL 5
REMARK VINA RESULT:      -6.9     11.248     14.046
REMARK  Name = 4DYM_IYZ.pdb
REMARK  4 active torsions:
REMARK  status: ('A' for Active; 'I' for Inactive)
REMARK    1  A    between atoms: _11  and  _18
REMARK    2  A    between atoms: _11  and  _21
REMARK    3  A    between atoms: _12  and  _13
REMARK    4  A    between atoms: _14  and  _16
REMARK                            x       y       z     vdW  Elec       q    Type
REMARK                         _______ _______ _______ _____ _____    ______ ____
ROOT
ATOM      1  C   UNL     1       6.571  19.798  12.245  0.00  0.00    +0.104 A 
ATOM      2  N   UNL     1       5.894  19.028  11.298  0.00  0.00    -0.210 N 
ATOM      3  N   UNL     1       5.216  17.991  11.381  0.00  0.00    -0.147 NA
ATOM      4  C   UNL     1       4.606  17.406  10.322  0.00  0.00    +0.168 A 
ATOM      5  N   UNL     1       3.923  16.247  10.500  0.00  0.00    -0.219 NA
ATOM      6  C   UNL     1       4.699  18.004   9.058  0.00  0.00    +0.041 A 
ATOM      7  C   UNL     1       5.421  19.170   8.950  0.00  0.00    +0.042 A 
ATOM      8  C   UNL     1       6.036  19.696  10.082  0.00  0.00    +0.164 A 
ATOM      9  N   UNL     1       6.809  20.767  10.301  0.00  0.00    -0.223 NA
ATOM     10  C   UNL     1       7.106  20.856  11.604  0.00  0.00    +0.120 A 
ENDROOT
BRANCH   1  13
ATOM     11  C   UNL     1       6.302  20.124  15.924  0.00  0.00    +0.035 A 
ATOM     12  C   UNL     1       6.264  20.407  14.570  0.00  0.00    +0.004 A 
ATOM     13  C   UNL     1       6.604  19.462  13.598  0.00  0.00    +0.019 A 
ATOM     14  C   UNL     1       7.055  18.196  14.007  0.00  0.00    +0.002 A 
ATOM     15  C   UNL     1       7.109  17.899  15.382  0.00  0.00    +0.000 A 
ATOM     16  C   UNL     1       6.722  18.866  16.336  0.00  0.00    +0.003 A 
BRANCH  11  18
ATOM     17  C   UNL     1       6.392  22.635  16.818  0.00  0.00    +0.077 C 
ATOM     18  C   UNL     1       5.840  21.219  16.942  0.00  0.00    +0.173 C 
ATOM     19  O   UNL     1       4.995  20.988  17.811  0.00  0.00    -0.291 OA
ENDBRANCH  11  18
ENDBRANCH   1  13
BRANCH   5  20
ATOM     20  C   UNL     1       3.427  15.824  11.813  0.00  0.00    +0.114 C 
BRANCH  20  21
ATOM     21  C   UNL     1       4.236  14.649  12.404  0.00  0.00    +0.022 C 
ATOM     22  C   UNL     1       5.391  14.999  13.352  0.00  0.00    +0.002 C 
ATOM     23  C   UNL     1       4.090  14.474  13.936  0.00  0.00    +0.002 C 
ENDBRANCH  20  21
ENDBRANCH   5  20
TORSDOF 4
ENDMDL
MODEL 6
REMARK VINA RESULT:      -6.8     11.089     12.627
REMARK  Name = 4DYM_IYZ.pdb
REMARK  4 active torsions:
REMARK  status: ('A' for Active; 'I' for Inactive)
REMARK    1  A    between atoms: _11  and  _18
REMARK    2  A    between atoms: _11  and  _21
REMARK    3  A    between atoms: _12  and  _13
REMARK    4  A    between atoms: _14  and  _16
REMARK                            x       y       z     vdW  Elec       q    Type
REMARK                         _______ _______ _______ _____ _____    ______ ____
ROOT
ATOM      1  C   UNL     1       6.565  19.374  13.258  0.00  0.00    +0.104 A 
ATOM      2  N   UNL     1       6.374  20.424  14.157  0.00  0.00    -0.210 N 
ATOM      3  N   UNL     1       6.053  21.615  14.009  0.00  0.00    -0.147 NA
ATOM      4  C   UNL     1       5.890  22.481  15.038  0.00  0.00    +0.168 A 
ATOM      5  N   UNL     1       5.584  23.777  14.779  0.00  0.00    -0.219 NA
ATOM      6  C   UNL     1       6.050  22.025  16.354  0.00  0.00    +0.041 A 
ATOM      7  C   UNL     1       6.375  20.701  16.540  0.00  0.00    +0.042 A 
ATOM      8  C   UNL     1       6.547  19.881  15.430  0.00  0.00    +0.164 A 
ATOM      9  N   UNL     1       6.882  18.594  15.274  0.00  0.00    -0.223 NA
ATOM     10  C   UNL     1       6.861  18.272  13.974  0.00  0.00    +0.120 A 
ENDROOT
BRANCH   1  13
ATOM     11  C   UNL     1       5.285  18.923   9.812  0.00  0.00    +0.035 A 
ATOM     12  C   UNL     1       5.449  18.812  11.181  0.00  0.00    +0.004 A 
ATOM     13  C   UNL     1       6.423  19.534  11.880  0.00  0.00    +0.019 A 
ATOM     14  C   UNL     1       7.303  20.359  11.163  0.00  0.00    +0.002 A 
ATOM     15  C   UNL     1       7.155  20.472   9.767  0.00  0.00    +0.000 A 
ATOM     16  C   UNL     1       6.136  19.758   9.099  0.00  0.00    +0.003 A 
BRANCH  11  18
ATOM     17  C   UNL     1       2.690  18.617   9.279  0.00  0.00    +0.077 C 
ATOM     18  C   UNL     1       4.127  18.132   9.119  0.00  0.00    +0.173 C 
ATOM     19  O   UNL     1       4.344  17.157   8.396  0.00  0.00    -0.291 OA
ENDBRANCH  11  18
ENDBRANCH   1  13
BRANCH   5  20
ATOM     20  C   UNL     1       4.987  24.202  13.509  0.00  0.00    +0.114 C 
BRANCH  20  21
ATOM     21  C   UNL     1       5.985  24.955  12.604  0.00  0.00    +0.022 C 
ATOM     22  C   UNL     1       6.667  24.149  11.489  0.00  0.00    +0.002 C 
ATOM     23  C   UNL     1       5.535  25.098  11.130  0.00  0.00    +0.002 C 
ENDBRANCH  20  21
ENDBRANCH   5  20
TORSDOF 4
ENDMDL
MODEL 7
REMARK VINA RESULT:      -6.7     10.663     12.721
REMARK  Name = 4DYM_IYZ.pdb
REMARK  4 active torsions:
REMARK  status: ('A' for Active; 'I' for Inactive)
REMARK    1  A    between atoms: _11  and  _18
REMARK    2  A    between atoms: _11  and  _21
REMARK    3  A    between atoms: _12  and  _13
REMARK    4  A    between atoms: _14  and  _16
REMARK                            x       y       z     vdW  Elec       q    Type
REMARK                         _______ _______ _______ _____ _____    ______ ____
ROOT
ATOM      1  C   UNL     1       6.244  21.567  15.148  0.00  0.00    +0.104 A 
ATOM      2  N   UNL     1       5.658  22.280  14.102  0.00  0.00    -0.210 N 
ATOM      3  N   UNL     1       5.202  21.939  12.998  0.00  0.00    -0.147 NA
ATOM      4  C   UNL     1       4.636  22.803  12.120  0.00  0.00    +0.168 A 
ATOM      5  N   UNL     1       4.208  22.347  10.916  0.00  0.00    -0.219 NA
ATOM      6  C   UNL     1       4.512  24.155  12.468  0.00  0.00    +0.041 A 
ATOM      7  C   UNL     1       4.983  24.547  13.700  0.00  0.00    +0.042 A 
ATOM      8  C   UNL     1       5.571  23.603  14.535  0.00  0.00    +0.164 A 
ATOM      9  N   UNL     1       6.136  23.665  15.747  0.00  0.00    -0.223 NA
ATOM     10  C   UNL     1       6.512  22.440  16.139  0.00  0.00    +0.120 A 
ENDROOT
BRANCH   1  13
ATOM     11  C   UNL     1       6.799  18.079  16.262  0.00  0.00    +0.035 A 
ATOM     12  C   UNL     1       6.576  19.444  16.269  0.00  0.00    +0.004 A 
ATOM     13  C   UNL     1       6.448  20.188  15.092  0.00  0.00    +0.019 A 
ATOM     14  C   UNL     1       6.607  19.540  13.856  0.00  0.00    +0.002 A 
ATOM     15  C   UNL     1       6.846  18.153  13.835  0.00  0.00    +0.000 A 
ATOM     16  C   UNL     1       6.931  17.426  15.043  0.00  0.00    +0.003 A 
BRANCH  11  18
ATOM     17  C   UNL     1       6.776  15.790  17.629  0.00  0.00    +0.077 C 
ATOM     18  C   UNL     1       6.861  17.312  17.624  0.00  0.00    +0.173 C 
ATOM     19  O   UNL     1       7.037  17.897  18.696  0.00  0.00    -0.291 OA
ENDBRANCH  11  18
ENDBRANCH   1  13
BRANCH   5  20
ATOM     20  C   UNL     1       3.908  20.933  10.675  0.00  0.00    +0.114 C 
BRANCH  20  21
ATOM     21  C   UNL     1       4.885  20.280   9.674  0.00  0.00    +0.022 C 
ATOM     22  C   UNL     1       6.386  20.439   9.952  0.00  0.00    +0.002 C 
ATOM     23  C   UNL     1       5.716  19.110  10.256  0.00  0.00    +0.002 C 
ENDBRANCH  20  21
ENDBRANCH   5  20
TORSDOF 4
ENDMDL
MODEL 8
REMARK VINA RESULT:      -6.5      9.129     11.001
REMARK  Name = 4DYM_IYZ.pdb
REMARK  4 active torsions:
REMARK  status: ('A' for Active; 'I' for Inactive)
REMARK    1  A    between atoms: _11  and  _18
REMARK    2  A    between atoms: _11  and  _21
REMARK    3  A    between atoms: _12  and  _13
REMARK    4  A    between atoms: _14  and  _16
REMARK                            x       y       z     vdW  Elec       q    Type
REMARK                         _______ _______ _______ _____ _____    ______ ____
ROOT
ATOM      1  C   UNL     1       6.466  23.675  17.693  0.00  0.00    +0.104 A 
ATOM      2  N   UNL     1       6.426  22.493  16.953  0.00  0.00    -0.210 N 
ATOM      3  N   UNL     1       6.527  21.296  17.267  0.00  0.00    -0.147 NA
ATOM      4  C   UNL     1       6.429  20.276  16.380  0.00  0.00    +0.168 A 
ATOM      5  N   UNL     1       6.599  19.000  16.808  0.00  0.00    -0.219 NA
ATOM      6  C   UNL     1       6.162  20.558  15.034  0.00  0.00    +0.041 A 
ATOM      7  C   UNL     1       6.016  21.877  14.671  0.00  0.00    +0.042 A 
ATOM      8  C   UNL     1       6.153  22.868  15.638  0.00  0.00    +0.164 A 
ATOM      9  N   UNL     1       6.100  24.205  15.605  0.00  0.00    -0.223 NA
ATOM     10  C   UNL     1       6.251  24.698  16.842  0.00  0.00    +0.120 A 
ENDROOT
BRANCH   1  13
ATOM     11  C   UNL     1       7.832  22.797  21.021  0.00  0.00    +0.035 A 
ATOM     12  C   UNL     1       7.609  22.833  19.656  0.00  0.00    +0.004 A 
ATOM     13  C   UNL     1       6.670  23.688  19.073  0.00  0.00    +0.019 A 
ATOM     14  C   UNL     1       5.882  24.502  19.903  0.00  0.00    +0.002 A 
ATOM     15  C   UNL     1       6.089  24.467  21.295  0.00  0.00    +0.000 A 
ATOM     16  C   UNL     1       7.074  23.617  21.847  0.00  0.00    +0.003 A 
BRANCH  11  18
ATOM     17  C   UNL     1       8.734  20.350  21.576  0.00  0.00    +0.077 C 
ATOM     18  C   UNL     1       8.950  21.859  21.585  0.00  0.00    +0.173 C 
ATOM     19  O   UNL     1      10.031  22.299  21.985  0.00  0.00    -0.291 OA
ENDBRANCH  11  18
ENDBRANCH   1  13
BRANCH   5  20
ATOM     20  C   UNL     1       6.440  18.616  18.214  0.00  0.00    +0.114 C 
BRANCH  20  21
ATOM     21  C   UNL     1       7.052  17.234  18.527  0.00  0.00    +0.022 C 
ATOM     22  C   UNL     1       7.882  17.108  19.812  0.00  0.00    +0.002 C 
ATOM     23  C   UNL     1       6.471  16.544  19.785  0.00  0.00    +0.002 C 
ENDBRANCH  20  21
ENDBRANCH   5  20
TORSDOF 4
ENDMDL
MODEL 9
REMARK VINA RESULT:      -6.5      8.534     11.909
REMARK  Name = 4DYM_IYZ.pdb
REMARK  4 active torsions:
REMARK  status: ('A' for Active; 'I' for Inactive)
REMARK    1  A    between atoms: _11  and  _18
REMARK    2  A    between atoms: _11  and  _21
REMARK    3  A    between atoms: _12  and  _13
REMARK    4  A    between atoms: _14  and  _16
REMARK                            x       y       z     vdW  Elec       q    Type
REMARK                         _______ _______ _______ _____ _____    ______ ____
ROOT
ATOM      1  C   UNL     1       6.569  20.174  14.897  0.00  0.00    +0.104 A 
ATOM      2  N   UNL     1       6.508  20.600  13.570  0.00  0.00    -0.210 N 
ATOM      3  N   UNL     1       6.442  21.724  13.046  0.00  0.00    -0.147 NA
ATOM      4  C   UNL     1       6.421  21.928  11.706  0.00  0.00    +0.168 A 
ATOM      5  N   UNL     1       6.299  23.190  11.224  0.00  0.00    -0.219 NA
ATOM      6  C   UNL     1       6.517  20.829  10.842  0.00  0.00    +0.041 A 
ATOM      7  C   UNL     1       6.623  19.577  11.403  0.00  0.00    +0.042 A 
ATOM      8  C   UNL     1       6.615  19.450  12.789  0.00  0.00    +0.164 A 
ATOM      9  N   UNL     1       6.671  18.404  13.621  0.00  0.00    -0.223 NA
ATOM     10  C   UNL     1       6.680  18.831  14.891  0.00  0.00    +0.120 A 
ENDROOT
BRANCH   1  13
ATOM     11  C   UNL     1       7.557  22.931  17.165  0.00  0.00    +0.035 A 
ATOM     12  C   UNL     1       7.533  22.040  16.106  0.00  0.00    +0.004 A 
ATOM     13  C   UNL     1       6.541  21.064  15.971  0.00  0.00    +0.019 A 
ATOM     14  C   UNL     1       5.565  20.942  16.973  0.00  0.00    +0.002 A 
ATOM     15  C   UNL     1       5.584  21.834  18.062  0.00  0.00    +0.000 A 
ATOM     16  C   UNL     1       6.579  22.834  18.146  0.00  0.00    +0.003 A 
BRANCH  11  18
ATOM     17  C   UNL     1      10.041  23.734  16.625  0.00  0.00    +0.077 C 
ATOM     18  C   UNL     1       8.663  24.036  17.203  0.00  0.00    +0.173 C 
ATOM     19  O   UNL     1       8.439  25.170  17.635  0.00  0.00    -0.291 OA
ENDBRANCH  11  18
ENDBRANCH   1  13
BRANCH   5  20
ATOM     20  C   UNL     1       6.633  24.371  12.026  0.00  0.00    +0.114 C 
BRANCH  20  21
ATOM     21  C   UNL     1       5.385  25.173  12.451  0.00  0.00    +0.022 C 
ATOM     22  C   UNL     1       4.189  24.376  12.991  0.00  0.00    +0.002 C 
ATOM     23  C   UNL     1       5.078  25.127  13.968  0.00  0.00    +0.002 C 
ENDBRANCH  20  21
ENDBRANCH   5  20
TORSDOF 4
ENDMDL
