MODEL 1
REMARK VINA RESULT:      -6.7      0.000      0.000
REMARK  Name = 3OOM_507.pdb
REMARK  4 active torsions:
REMARK  status: ('A' for Active; 'I' for Inactive)
REMARK    1  A    between atoms: _1  and  _18
REMARK    2  A    between atoms: _16  and  _24
REMARK    3  A    between atoms: _18  and  _19
REMARK    4  A    between atoms: _20  and  _22
REMARK                            x       y       z     vdW  Elec       q    Type
REMARK                         _______ _______ _______ _____ _____    ______ ____
ROOT
ATOM      1  C   UNL     1      12.224  17.107  27.250  0.00  0.00    +0.093 A 
ATOM      2  N   UNL     1      10.977  16.780  26.785  0.00  0.00    -0.211 N 
ATOM      3  C   UNL     1      10.652  17.699  25.822  0.00  0.00    +0.155 A 
ATOM      4  N   UNL     1      11.661  18.554  25.701  0.00  0.00    -0.234 NA
ATOM      5  C   UNL     1       9.409  17.599  25.169  0.00  0.00    +0.051 A 
ATOM      6  C   UNL     1       8.557  16.595  25.509  0.00  0.00    +0.049 A 
ATOM      7  C   UNL     1       8.922  15.667  26.503  0.00  0.00    +0.140 A 
ATOM      8  N   UNL     1       8.043  14.642  26.844  0.00  0.00    -0.325 N 
ATOM      9  H   UNL     1       7.185  14.571  26.397  0.00  0.00    +0.148 HD
ATOM     10  N   UNL     1      10.080  15.758  27.112  0.00  0.00    -0.150 NA
ATOM     11  C   UNL     1      12.628  18.225  26.551  0.00  0.00    +0.141 A 
ENDROOT
BRANCH   1  14
ATOM     12  C   UNL     1      14.161  16.416  30.406  0.00  0.00    +0.018 A 
ATOM     13  C   UNL     1      13.438  17.092  29.421  0.00  0.00    +0.021 A 
ATOM     14  C   UNL     1      12.988  16.399  28.299  0.00  0.00    +0.003 A 
ATOM     15  C   UNL     1      13.261  15.035  28.167  0.00  0.00    +0.010 A 
ATOM     16  C   UNL     1      13.975  14.372  29.145  0.00  0.00    +0.001 A 
ATOM     17  C   UNL     1      14.425  15.049  30.259  0.00  0.00    +0.011 A 
BRANCH  12  19
ATOM     18  C   UNL     1      16.095  17.067  31.984  0.00  0.00    +0.091 C 
ATOM     19  C   UNL     1      14.641  17.137  31.596  0.00  0.00    +0.160 C 
ATOM     20  O   UNL     1      13.865  17.788  32.264  0.00  0.00    -0.292 OA
ENDBRANCH  12  19
ENDBRANCH   1  14
BRANCH   8  21
ATOM     21  C   UNL     1       8.414  13.673  27.878  0.00  0.00    +0.076 C 
ATOM     22  C   UNL     1       7.241  13.478  28.842  0.00  0.00    +0.050 C 
ATOM     23  C   UNL     1       7.609  12.406  29.871  0.00  0.00    +0.161 C 
ATOM     24  O   UNL     1       7.941  11.192  29.195  0.00  0.00    -0.380 OA
ATOM     25  C   UNL     1       9.061  11.303  28.314  0.00  0.00    +0.161 C 
ATOM     26  C   UNL     1       8.751  12.330  27.222  0.00  0.00    +0.050 C 
ENDBRANCH   8  21
TORSDOF 3
ENDMDL
MODEL 2
REMARK VINA RESULT:      -6.4      2.794      6.042
REMARK  Name = 3OOM_507.pdb
REMARK  4 active torsions:
REMARK  status: ('A' for Active; 'I' for Inactive)
REMARK    1  A    between atoms: _1  and  _18
REMARK    2  A    between atoms: _16  and  _24
REMARK    3  A    between atoms: _18  and  _19
REMARK    4  A    between atoms: _20  and  _22
REMARK                            x       y       z     vdW  Elec       q    Type
REMARK                         _______ _______ _______ _____ _____    ______ ____
ROOT
ATOM      1  C   UNL     1      12.113  15.495  27.674  0.00  0.00    +0.093 A 
ATOM      2  N   UNL     1      12.270  16.569  26.838  0.00  0.00    -0.211 N 
ATOM      3  C   UNL     1      13.268  17.347  27.363  0.00  0.00    +0.155 A 
ATOM      4  N   UNL     1      13.707  16.772  28.477  0.00  0.00    -0.234 NA
ATOM      5  C   UNL     1      13.639  18.531  26.696  0.00  0.00    +0.051 A 
ATOM      6  C   UNL     1      12.999  18.876  25.548  0.00  0.00    +0.049 A 
ATOM      7  C   UNL     1      11.977  18.055  25.035  0.00  0.00    +0.140 A 
ATOM      8  N   UNL     1      11.328  18.418  23.858  0.00  0.00    -0.325 N 
ATOM      9  H   UNL     1      11.580  19.233  23.397  0.00  0.00    +0.148 HD
ATOM     10  N   UNL     1      11.630  16.952  25.654  0.00  0.00    -0.150 NA
ATOM     11  C   UNL     1      13.029  15.650  28.693  0.00  0.00    +0.141 A 
ENDROOT
BRANCH   1  14
ATOM     12  C   UNL     1       9.121  13.264  28.180  0.00  0.00    +0.018 A 
ATOM     13  C   UNL     1      10.026  14.316  28.336  0.00  0.00    +0.021 A 
ATOM     14  C   UNL     1      11.149  14.387  27.515  0.00  0.00    +0.003 A 
ATOM     15  C   UNL     1      11.363  13.407  26.542  0.00  0.00    +0.010 A 
ATOM     16  C   UNL     1      10.464  12.369  26.391  0.00  0.00    +0.001 A 
ATOM     17  C   UNL     1       9.349  12.291  27.200  0.00  0.00    +0.011 A 
BRANCH  12  19
ATOM     18  C   UNL     1       8.088  12.959  30.524  0.00  0.00    +0.091 C 
ATOM     19  C   UNL     1       7.931  13.180  29.042  0.00  0.00    +0.160 C 
ATOM     20  O   UNL     1       6.823  13.288  28.558  0.00  0.00    -0.292 OA
ENDBRANCH  12  19
ENDBRANCH   1  14
BRANCH   8  21
ATOM     21  C   UNL     1      10.263  17.569  23.318  0.00  0.00    +0.076 C 
ATOM     22  C   UNL     1       8.901  18.105  23.767  0.00  0.00    +0.050 C 
ATOM     23  C   UNL     1       7.794  17.260  23.134  0.00  0.00    +0.161 C 
ATOM     24  O   UNL     1       7.927  17.290  21.711  0.00  0.00    -0.380 OA
ATOM     25  C   UNL     1       9.162  16.757  21.231  0.00  0.00    +0.161 C 
ATOM     26  C   UNL     1      10.325  17.582  21.787  0.00  0.00    +0.050 C 
ENDBRANCH   8  21
TORSDOF 3
ENDMDL
MODEL 3
REMARK VINA RESULT:      -6.4      2.681      5.681
REMARK  Name = 3OOM_507.pdb
REMARK  4 active torsions:
REMARK  status: ('A' for Active; 'I' for Inactive)
REMARK    1  A    between atoms: _1  and  _18
REMARK    2  A    between atoms: _16  and  _24
REMARK    3  A    between atoms: _18  and  _19
REMARK    4  A    between atoms: _20  and  _22
REMARK                            x       y       z     vdW  Elec       q    Type
REMARK                         _______ _______ _______ _____ _____    ______ ____
ROOT
ATOM      1  C   UNL     1      12.623  15.967  28.575  0.00  0.00    +0.093 A 
ATOM      2  N   UNL     1      12.688  16.837  27.518  0.00  0.00    -0.211 N 
ATOM      3  C   UNL     1      13.733  17.690  27.762  0.00  0.00    +0.155 A 
ATOM      4  N   UNL     1      14.286  17.355  28.922  0.00  0.00    -0.234 NA
ATOM      5  C   UNL     1      14.030  18.698  26.826  0.00  0.00    +0.051 A 
ATOM      6  C   UNL     1      13.273  18.805  25.701  0.00  0.00    +0.049 A 
ATOM      7  C   UNL     1      12.207  17.913  25.480  0.00  0.00    +0.140 A 
ATOM      8  N   UNL     1      11.439  18.031  24.325  0.00  0.00    -0.325 N 
ATOM      9  H   UNL     1      11.639  18.725  23.678  0.00  0.00    +0.148 HD
ATOM     10  N   UNL     1      11.929  16.973  26.352  0.00  0.00    -0.150 NA
ATOM     11  C   UNL     1      13.638  16.316  29.440  0.00  0.00    +0.141 A 
ENDROOT
BRANCH   1  14
ATOM     12  C   UNL     1       9.614  13.750  28.107  0.00  0.00    +0.018 A 
ATOM     13  C   UNL     1      10.529  14.790  27.930  0.00  0.00    +0.021 A 
ATOM     14  C   UNL     1      11.651  14.868  28.753  0.00  0.00    +0.003 A 
ATOM     15  C   UNL     1      11.854  13.907  29.746  0.00  0.00    +0.010 A 
ATOM     16  C   UNL     1      10.947  12.880  29.915  0.00  0.00    +0.001 A 
ATOM     17  C   UNL     1       9.832  12.794  29.105  0.00  0.00    +0.011 A 
BRANCH  12  19
ATOM     18  C   UNL     1       8.571  13.769  25.748  0.00  0.00    +0.091 C 
ATOM     19  C   UNL     1       8.426  13.657  27.243  0.00  0.00    +0.160 C 
ATOM     20  O   UNL     1       7.329  13.491  27.736  0.00  0.00    -0.292 OA
ENDBRANCH  12  19
ENDBRANCH   1  14
BRANCH   8  21
ATOM     21  C   UNL     1      10.327  17.107  24.088  0.00  0.00    +0.076 C 
ATOM     22  C   UNL     1       8.998  17.847  24.267  0.00  0.00    +0.050 C 
ATOM     23  C   UNL     1       7.845  16.896  23.940  0.00  0.00    +0.161 C 
ATOM     24  O   UNL     1       7.997  16.404  22.607  0.00  0.00    -0.380 OA
ATOM     25  C   UNL     1       9.200  15.663  22.393  0.00  0.00    +0.161 C 
ATOM     26  C   UNL     1      10.408  16.565  22.657  0.00  0.00    +0.050 C 
ENDBRANCH   8  21
TORSDOF 3
ENDMDL
MODEL 4
REMARK VINA RESULT:      -6.3      1.571      2.261
REMARK  Name = 3OOM_507.pdb
REMARK  4 active torsions:
REMARK  status: ('A' for Active; 'I' for Inactive)
REMARK    1  A    between atoms: _1  and  _18
REMARK    2  A    between atoms: _16  and  _24
REMARK    3  A    between atoms: _18  and  _19
REMARK    4  A    between atoms: _20  and  _22
REMARK                            x       y       z     vdW  Elec       q    Type
REMARK                         _______ _______ _______ _____ _____    ______ ____
ROOT
ATOM      1  C   UNL     1      11.861  16.979  26.289  0.00  0.00    +0.093 A 
ATOM      2  N   UNL     1      10.718  16.401  25.802  0.00  0.00    -0.211 N 
ATOM      3  C   UNL     1      10.429  17.018  24.614  0.00  0.00    +0.155 A 
ATOM      4  N   UNL     1      11.358  17.938  24.382  0.00  0.00    -0.234 NA
ATOM      5  C   UNL     1       9.291  16.616  23.890  0.00  0.00    +0.051 A 
ATOM      6  C   UNL     1       8.503  15.624  24.385  0.00  0.00    +0.049 A 
ATOM      7  C   UNL     1       8.829  15.009  25.609  0.00  0.00    +0.140 A 
ATOM      8  N   UNL     1       8.016  13.995  26.108  0.00  0.00    -0.325 N 
ATOM      9  H   UNL     1       7.231  13.715  25.612  0.00  0.00    +0.148 HD
ATOM     10  N   UNL     1       9.889  15.383  26.285  0.00  0.00    -0.150 NA
ATOM     11  C   UNL     1      12.240  17.940  25.376  0.00  0.00    +0.141 A 
ENDROOT
BRANCH   1  14
ATOM     12  C   UNL     1      13.009  15.078  29.332  0.00  0.00    +0.018 A 
ATOM     13  C   UNL     1      12.353  15.392  28.140  0.00  0.00    +0.021 A 
ATOM     14  C   UNL     1      12.554  16.638  27.550  0.00  0.00    +0.003 A 
ATOM     15  C   UNL     1      13.408  17.564  28.152  0.00  0.00    +0.010 A 
ATOM     16  C   UNL     1      14.055  17.249  29.331  0.00  0.00    +0.001 A 
ATOM     17  C   UNL     1      13.863  16.017  29.923  0.00  0.00    +0.011 A 
BRANCH  12  19
ATOM     18  C   UNL     1      11.421  13.178  30.052  0.00  0.00    +0.091 C 
ATOM     19  C   UNL     1      12.806  13.765  29.964  0.00  0.00    +0.160 C 
ATOM     20  O   UNL     1      13.753  13.155  30.414  0.00  0.00    -0.292 OA
ENDBRANCH  12  19
ENDBRANCH   1  14
BRANCH   8  21
ATOM     21  C   UNL     1       8.348  13.350  27.381  0.00  0.00    +0.076 C 
ATOM     22  C   UNL     1       7.306  13.733  28.436  0.00  0.00    +0.050 C 
ATOM     23  C   UNL     1       7.615  12.994  29.740  0.00  0.00    +0.161 C 
ATOM     24  O   UNL     1       7.624  11.585  29.497  0.00  0.00    -0.380 OA
ATOM     25  C   UNL     1       8.611  11.163  28.553  0.00  0.00    +0.161 C 
ATOM     26  C   UNL     1       8.342  11.829  27.201  0.00  0.00    +0.050 C 
ENDBRANCH   8  21
TORSDOF 3
ENDMDL
MODEL 5
REMARK VINA RESULT:      -6.3      2.082      2.974
REMARK  Name = 3OOM_507.pdb
REMARK  4 active torsions:
REMARK  status: ('A' for Active; 'I' for Inactive)
REMARK    1  A    between atoms: _1  and  _18
REMARK    2  A    between atoms: _16  and  _24
REMARK    3  A    between atoms: _18  and  _19
REMARK    4  A    between atoms: _20  and  _22
REMARK                            x       y       z     vdW  Elec       q    Type
REMARK                         _______ _______ _______ _____ _____    ______ ____
ROOT
ATOM      1  C   UNL     1      10.643  16.503  25.119  0.00  0.00    +0.093 A 
ATOM      2  N   UNL     1       9.819  15.437  24.866  0.00  0.00    -0.211 N 
ATOM      3  C   UNL     1       9.614  15.398  23.512  0.00  0.00    +0.155 A 
ATOM      4  N   UNL     1      10.287  16.400  22.957  0.00  0.00    -0.234 NA
ATOM      5  C   UNL     1       8.795  14.390  22.969  0.00  0.00    +0.051 A 
ATOM      6  C   UNL     1       8.223  13.478  23.801  0.00  0.00    +0.049 A 
ATOM      7  C   UNL     1       8.453  13.546  25.188  0.00  0.00    +0.140 A 
ATOM      8  N   UNL     1       7.864  12.607  26.030  0.00  0.00    -0.325 N 
ATOM      9  H   UNL     1       7.298  11.912  25.661  0.00  0.00    +0.148 HD
ATOM     10  N   UNL     1       9.217  14.485  25.695  0.00  0.00    -0.150 NA
ATOM     11  C   UNL     1      10.920  17.087  23.902  0.00  0.00    +0.141 A 
ENDROOT
BRANCH   1  14
ATOM     12  C   UNL     1      12.515  16.576  28.387  0.00  0.00    +0.018 A 
ATOM     13  C   UNL     1      12.055  16.156  27.136  0.00  0.00    +0.021 A 
ATOM     14  C   UNL     1      11.137  16.940  26.442  0.00  0.00    +0.003 A 
ATOM     15  C   UNL     1      10.683  18.139  26.998  0.00  0.00    +0.010 A 
ATOM     16  C   UNL     1      11.142  18.549  28.234  0.00  0.00    +0.001 A 
ATOM     17  C   UNL     1      12.052  17.779  28.930  0.00  0.00    +0.011 A 
BRANCH  12  19
ATOM     18  C   UNL     1      14.215  16.338  30.312  0.00  0.00    +0.091 C 
ATOM     19  C   UNL     1      13.486  15.756  29.129  0.00  0.00    +0.160 C 
ATOM     20  O   UNL     1      13.700  14.611  28.788  0.00  0.00    -0.292 OA
ENDBRANCH  12  19
ENDBRANCH   1  14
BRANCH   8  21
ATOM     21  C   UNL     1       8.098  12.671  27.475  0.00  0.00    +0.076 C 
ATOM     22  C   UNL     1       6.764  12.862  28.203  0.00  0.00    +0.050 C 
ATOM     23  C   UNL     1       7.009  12.848  29.713  0.00  0.00    +0.161 C 
ATOM     24  O   UNL     1       7.638  11.619  30.082  0.00  0.00    -0.380 OA
ATOM     25  C   UNL     1       8.911  11.409  29.468  0.00  0.00    +0.161 C 
ATOM     26  C   UNL     1       8.743  11.364  27.947  0.00  0.00    +0.050 C 
ENDBRANCH   8  21
TORSDOF 3
ENDMDL
MODEL 6
REMARK VINA RESULT:      -6.3      3.615      7.533
REMARK  Name = 3OOM_507.pdb
REMARK  4 active torsions:
REMARK  status: ('A' for Active; 'I' for Inactive)
REMARK    1  A    between atoms: _1  and  _18
REMARK    2  A    between atoms: _16  and  _24
REMARK    3  A    between atoms: _18  and  _19
REMARK    4  A    between atoms: _20  and  _22
REMARK                            x       y       z     vdW  Elec       q    Type
REMARK                         _______ _______ _______ _____ _____    ______ ____
ROOT
ATOM      1  C   UNL     1       9.019  17.688  23.651  0.00  0.00    +0.093 A 
ATOM      2  N   UNL     1       9.530  17.193  24.822  0.00  0.00    -0.211 N 
ATOM      3  C   UNL     1      10.607  17.973  25.153  0.00  0.00    +0.155 A 
ATOM      4  N   UNL     1      10.749  18.909  24.222  0.00  0.00    -0.234 NA
ATOM      5  C   UNL     1      11.330  17.684  26.326  0.00  0.00    +0.051 A 
ATOM      6  C   UNL     1      10.945  16.637  27.105  0.00  0.00    +0.049 A 
ATOM      7  C   UNL     1       9.833  15.855  26.736  0.00  0.00    +0.140 A 
ATOM      8  N   UNL     1       9.447  14.787  27.540  0.00  0.00    -0.325 N 
ATOM      9  H   UNL     1       9.943  14.584  28.348  0.00  0.00    +0.148 HD
ATOM     10  N   UNL     1       9.159  16.124  25.644  0.00  0.00    -0.150 NA
ATOM     11  C   UNL     1       9.804  18.764  23.299  0.00  0.00    +0.141 A 
ENDROOT
BRANCH   1  14
ATOM     12  C   UNL     1       6.930  15.949  21.042  0.00  0.00    +0.018 A 
ATOM     13  C   UNL     1       8.039  16.436  21.738  0.00  0.00    +0.021 A 
ATOM     14  C   UNL     1       7.851  17.167  22.910  0.00  0.00    +0.003 A 
ATOM     15  C   UNL     1       6.558  17.408  23.380  0.00  0.00    +0.010 A 
ATOM     16  C   UNL     1       5.465  16.923  22.688  0.00  0.00    +0.001 A 
ATOM     17  C   UNL     1       5.642  16.198  21.527  0.00  0.00    +0.011 A 
BRANCH  12  19
ATOM     18  C   UNL     1       7.738  15.826  18.595  0.00  0.00    +0.091 C 
ATOM     19  C   UNL     1       7.117  15.175  19.804  0.00  0.00    +0.160 C 
ATOM     20  O   UNL     1       6.771  14.013  19.758  0.00  0.00    -0.292 OA
ENDBRANCH  12  19
ENDBRANCH   1  14
BRANCH   8  21
ATOM     21  C   UNL     1       8.292  13.968  27.164  0.00  0.00    +0.076 C 
ATOM     22  C   UNL     1       8.769  12.725  26.407  0.00  0.00    +0.050 C 
ATOM     23  C   UNL     1       7.564  11.837  26.088  0.00  0.00    +0.161 C 
ATOM     24  O   UNL     1       6.895  11.489  27.302  0.00  0.00    -0.380 OA
ATOM     25  C   UNL     1       6.386  12.609  28.028  0.00  0.00    +0.161 C 
ATOM     26  C   UNL     1       7.543  13.528  28.426  0.00  0.00    +0.050 C 
ENDBRANCH   8  21
TORSDOF 3
ENDMDL
MODEL 7
REMARK VINA RESULT:      -6.1      3.560      6.419
REMARK  Name = 3OOM_507.pdb
REMARK  4 active torsions:
REMARK  status: ('A' for Active; 'I' for Inactive)
REMARK    1  A    between atoms: _1  and  _18
REMARK    2  A    between atoms: _16  and  _24
REMARK    3  A    between atoms: _18  and  _19
REMARK    4  A    between atoms: _20  and  _22
REMARK                            x       y       z     vdW  Elec       q    Type
REMARK                         _______ _______ _______ _____ _____    ______ ____
ROOT
ATOM      1  C   UNL     1      10.219  15.794  26.371  0.00  0.00    +0.093 A 
ATOM      2  N   UNL     1      10.009  16.698  25.362  0.00  0.00    -0.211 N 
ATOM      3  C   UNL     1      10.749  17.812  25.658  0.00  0.00    +0.155 A 
ATOM      4  N   UNL     1      11.388  17.599  26.803  0.00  0.00    -0.234 NA
ATOM      5  C   UNL     1      10.719  18.911  24.779  0.00  0.00    +0.051 A 
ATOM      6  C   UNL     1       9.955  18.844  23.656  0.00  0.00    +0.049 A 
ATOM      7  C   UNL     1       9.206  17.684  23.380  0.00  0.00    +0.140 A 
ATOM      8  N   UNL     1       8.427  17.624  22.228  0.00  0.00    -0.325 N 
ATOM      9  H   UNL     1       8.403  18.380  21.621  0.00  0.00    +0.148 HD
ATOM     10  N   UNL     1       9.234  16.658  24.199  0.00  0.00    -0.150 NA
ATOM     11  C   UNL     1      11.090  16.388  27.260  0.00  0.00    +0.141 A 
ENDROOT
BRANCH   1  14
ATOM     12  C   UNL     1       8.029  12.936  27.476  0.00  0.00    +0.018 A 
ATOM     13  C   UNL     1       8.582  14.215  27.374  0.00  0.00    +0.021 A 
ATOM     14  C   UNL     1       9.627  14.445  26.483  0.00  0.00    +0.003 A 
ATOM     15  C   UNL     1      10.116  13.398  25.697  0.00  0.00    +0.010 A 
ATOM     16  C   UNL     1       9.565  12.136  25.801  0.00  0.00    +0.001 A 
ATOM     17  C   UNL     1       8.529  11.898  26.682  0.00  0.00    +0.011 A 
BRANCH  12  19
ATOM     18  C   UNL     1       7.100  12.969  29.882  0.00  0.00    +0.091 C 
ATOM     19  C   UNL     1       6.924  12.681  28.414  0.00  0.00    +0.160 C 
ATOM     20  O   UNL     1       5.871  12.240  28.004  0.00  0.00    -0.292 OA
ENDBRANCH  12  19
ENDBRANCH   1  14
BRANCH   8  21
ATOM     21  C   UNL     1       7.645  16.421  21.934  0.00  0.00    +0.076 C 
ATOM     22  C   UNL     1       6.205  16.614  22.419  0.00  0.00    +0.050 C 
ATOM     23  C   UNL     1       5.377  15.386  22.038  0.00  0.00    +0.161 C 
ATOM     24  O   UNL     1       5.433  15.194  20.622  0.00  0.00    -0.380 OA
ATOM     25  C   UNL     1       6.750  14.962  20.118  0.00  0.00    +0.161 C 
ATOM     26  C   UNL     1       7.634  16.174  20.422  0.00  0.00    +0.050 C 
ENDBRANCH   8  21
TORSDOF 3
ENDMDL
MODEL 8
REMARK VINA RESULT:      -6.0      4.034      5.585
REMARK  Name = 3OOM_507.pdb
REMARK  4 active torsions:
REMARK  status: ('A' for Active; 'I' for Inactive)
REMARK    1  A    between atoms: _1  and  _18
REMARK    2  A    between atoms: _16  and  _24
REMARK    3  A    between atoms: _18  and  _19
REMARK    4  A    between atoms: _20  and  _22
REMARK                            x       y       z     vdW  Elec       q    Type
REMARK                         _______ _______ _______ _____ _____    ______ ____
ROOT
ATOM      1  C   UNL     1       8.880  17.752  23.014  0.00  0.00    +0.093 A 
ATOM      2  N   UNL     1       8.309  16.872  22.132  0.00  0.00    -0.211 N 
ATOM      3  C   UNL     1       8.240  17.504  20.919  0.00  0.00    +0.155 A 
ATOM      4  N   UNL     1       8.749  18.724  21.052  0.00  0.00    -0.234 NA
ATOM      5  C   UNL     1       7.689  16.822  19.817  0.00  0.00    +0.051 A 
ATOM      6  C   UNL     1       7.236  15.550  19.982  0.00  0.00    +0.049 A 
ATOM      7  C   UNL     1       7.322  14.928  21.242  0.00  0.00    +0.140 A 
ATOM      8  N   UNL     1       6.856  13.626  21.400  0.00  0.00    -0.325 N 
ATOM      9  H   UNL     1       6.474  13.152  20.645  0.00  0.00    +0.148 HD
ATOM     10  N   UNL     1       7.836  15.563  22.269  0.00  0.00    -0.150 NA
ATOM     11  C   UNL     1       9.145  18.905  22.307  0.00  0.00    +0.141 A 
ENDROOT
BRANCH   1  14
ATOM     12  C   UNL     1      10.684  17.509  26.312  0.00  0.00    +0.018 A 
ATOM     13  C   UNL     1      10.430  17.742  24.958  0.00  0.00    +0.021 A 
ATOM     14  C   UNL     1       9.156  17.510  24.445  0.00  0.00    +0.003 A 
ATOM     15  C   UNL     1       8.140  17.048  25.287  0.00  0.00    +0.010 A 
ATOM     16  C   UNL     1       8.397  16.820  26.624  0.00  0.00    +0.001 A 
ATOM     17  C   UNL     1       9.656  17.047  27.141  0.00  0.00    +0.011 A 
BRANCH  12  19
ATOM     18  C   UNL     1      13.135  18.234  25.965  0.00  0.00    +0.091 C 
ATOM     19  C   UNL     1      12.026  17.751  26.864  0.00  0.00    +0.160 C 
ATOM     20  O   UNL     1      12.240  17.562  28.043  0.00  0.00    -0.292 OA
ENDBRANCH  12  19
ENDBRANCH   1  14
BRANCH   8  21
ATOM     21  C   UNL     1       6.941  12.971  22.708  0.00  0.00    +0.076 C 
ATOM     22  C   UNL     1       5.677  12.140  22.949  0.00  0.00    +0.050 C 
ATOM     23  C   UNL     1       5.810  11.398  24.281  0.00  0.00    +0.161 C 
ATOM     24  O   UNL     1       6.981  10.579  24.255  0.00  0.00    -0.380 OA
ATOM     25  C   UNL     1       8.197  11.308  24.080  0.00  0.00    +0.161 C 
ATOM     26  C   UNL     1       8.161  12.046  22.739  0.00  0.00    +0.050 C 
ENDBRANCH   8  21
TORSDOF 3
ENDMDL
MODEL 9
REMARK VINA RESULT:      -6.0      4.712      6.478
REMARK  Name = 3OOM_507.pdb
REMARK  4 active torsions:
REMARK  status: ('A' for Active; 'I' for Inactive)
REMARK    1  A    between atoms: _1  and  _18
REMARK    2  A    between atoms: _16  and  _24
REMARK    3  A    between atoms: _18  and  _19
REMARK    4  A    between atoms: _20  and  _22
REMARK                            x       y       z     vdW  Elec       q    Type
REMARK                         _______ _______ _______ _____ _____    ______ ____
ROOT
ATOM      1  C   UNL     1       8.802  17.342  23.007  0.00  0.00    +0.093 A 
ATOM      2  N   UNL     1       8.195  16.786  21.911  0.00  0.00    -0.211 N 
ATOM      3  C   UNL     1       8.228  17.723  20.913  0.00  0.00    +0.155 A 
ATOM      4  N   UNL     1       8.832  18.811  21.378  0.00  0.00    -0.234 NA
ATOM      5  C   UNL     1       7.666  17.413  19.660  0.00  0.00    +0.051 A 
ATOM      6  C   UNL     1       7.101  16.190  19.468  0.00  0.00    +0.049 A 
ATOM      7  C   UNL     1       7.084  15.249  20.515  0.00  0.00    +0.140 A 
ATOM      8  N   UNL     1       6.504  14.001  20.308  0.00  0.00    -0.325 N 
ATOM      9  H   UNL     1       6.115  13.784  19.447  0.00  0.00    +0.148 HD
ATOM     10  N   UNL     1       7.608  15.537  21.683  0.00  0.00    -0.150 NA
ATOM     11  C   UNL     1       9.192  18.613  22.642  0.00  0.00    +0.141 A 
ENDROOT
BRANCH   1  14
ATOM     12  C   UNL     1      10.139  15.103  25.726  0.00  0.00    +0.018 A 
ATOM     13  C   UNL     1       9.960  15.704  24.478  0.00  0.00    +0.021 A 
ATOM     14  C   UNL     1       9.000  16.702  24.325  0.00  0.00    +0.003 A 
ATOM     15  C   UNL     1       8.223  17.095  25.418  0.00  0.00    +0.010 A 
ATOM     16  C   UNL     1       8.405  16.498  26.650  0.00  0.00    +0.001 A 
ATOM     17  C   UNL     1       9.354  15.509  26.811  0.00  0.00    +0.011 A 
BRANCH  12  19
ATOM     18  C   UNL     1      11.553  13.191  24.728  0.00  0.00    +0.091 C 
ATOM     19  C   UNL     1      11.151  14.049  25.899  0.00  0.00    +0.160 C 
ATOM     20  O   UNL     1      11.661  13.871  26.986  0.00  0.00    -0.292 OA
ENDBRANCH  12  19
ENDBRANCH   1  14
BRANCH   8  21
ATOM     21  C   UNL     1       6.482  13.016  21.393  0.00  0.00    +0.076 C 
ATOM     22  C   UNL     1       5.072  12.937  21.985  0.00  0.00    +0.050 C 
ATOM     23  C   UNL     1       5.039  11.851  23.062  0.00  0.00    +0.161 C 
ATOM     24  O   UNL     1       5.440  10.603  22.491  0.00  0.00    -0.380 OA
ATOM     25  C   UNL     1       6.767  10.603  21.964  0.00  0.00    +0.161 C 
ATOM     26  C   UNL     1       6.870  11.640  20.842  0.00  0.00    +0.050 C 
ENDBRANCH   8  21
TORSDOF 3
ENDMDL
