MODEL 1
REMARK VINA RESULT:      -9.1      0.000      0.000
REMARK  Name = 6GIP_EUN.pdb
REMARK  3 active torsions:
REMARK  status: ('A' for Active; 'I' for Inactive)
REMARK    1  A    between atoms: _1  and  _2
REMARK    2  A    between atoms: _9  and  _10
REMARK    3  A    between atoms: _20  and  _21
REMARK                            x       y       z     vdW  Elec       q    Type
REMARK                         _______ _______ _______ _____ _____    ______ ____
ROOT
ATOM      1  C   UNL     1       6.186  21.093  11.427  0.00  0.00    +0.086 C 
ATOM      2  C   UNL     1       6.488  21.675  12.781  0.00  0.00    +0.107 A 
ATOM      3  N   UNL     1       5.824  21.125  13.910  0.00  0.00    -0.234 NA
ATOM      4  C   UNL     1       6.093  21.660  15.233  0.00  0.00    +0.078 A 
ATOM      5  C   UNL     1       5.403  21.063  16.319  0.00  0.00    +0.029 A 
ATOM      6  C   UNL     1       5.603  21.491  17.612  0.00  0.00    +0.011 A 
ATOM      7  C   UNL     1       6.471  22.537  17.859  0.00  0.00    -0.013 A 
ATOM      8  C   UNL     1       7.167  23.142  16.789  0.00  0.00    -0.028 A 
ATOM      9  C   UNL     1       8.134  24.272  17.066  0.00  0.00    +0.045 C 
ATOM     10  C   UNL     1       6.966  22.684  15.442  0.00  0.00    +0.068 A 
ATOM     11  C   UNL     1       7.673  23.274  14.236  0.00  0.00    +0.259 A 
ATOM     12  O   UNL     1       8.458  24.198  14.359  0.00  0.00    -0.267 OA
ATOM     13  N   UNL     1       7.411  22.750  12.954  0.00  0.00    -0.311 N 
ATOM     14  H   UNL     1       7.837  23.102  12.226  0.00  0.00    +0.170 HD
ENDROOT
BRANCH   7  15
ATOM     15  C   UNL     1       6.653  22.937  19.183  0.00  0.00    -0.007 A 
ATOM     16  C   UNL     1       6.013  24.081  19.764  0.00  0.00    +0.008 A 
ATOM     17  C   UNL     1       5.116  24.885  19.017  0.00  0.00    +0.010 A 
ATOM     18  C   UNL     1       4.509  25.998  19.602  0.00  0.00    +0.001 A 
ATOM     19  C   UNL     1       4.787  26.329  20.924  0.00  0.00    +0.002 A 
ATOM     20  C   UNL     1       5.669  25.543  21.653  0.00  0.00    +0.028 A 
ATOM     21  C   UNL     1       6.285  24.410  21.056  0.00  0.00    +0.072 A 
ATOM     22  N   UNL     1       7.151  23.642  21.816  0.00  0.00    -0.255 NA
ATOM     23  C   UNL     1       7.763  22.559  21.300  0.00  0.00    +0.112 A 
ATOM     24  C   UNL     1       7.522  22.197  19.968  0.00  0.00    +0.029 A 
ENDBRANCH   7  15
TORSDOF 1
ENDMDL
MODEL 2
REMARK VINA RESULT:      -8.3      2.916      3.740
REMARK  Name = 6GIP_EUN.pdb
REMARK  3 active torsions:
REMARK  status: ('A' for Active; 'I' for Inactive)
REMARK    1  A    between atoms: _1  and  _2
REMARK    2  A    between atoms: _9  and  _10
REMARK    3  A    between atoms: _20  and  _21
REMARK                            x       y       z     vdW  Elec       q    Type
REMARK                         _______ _______ _______ _____ _____    ______ ____
ROOT
ATOM      1  C   UNL     1       5.069  27.944  10.913  0.00  0.00    +0.086 C 
ATOM      2  C   UNL     1       5.327  27.060  12.103  0.00  0.00    +0.107 A 
ATOM      3  N   UNL     1       5.932  27.642  13.250  0.00  0.00    -0.234 NA
ATOM      4  C   UNL     1       6.194  26.820  14.419  0.00  0.00    +0.078 A 
ATOM      5  C   UNL     1       6.792  27.461  15.533  0.00  0.00    +0.029 A 
ATOM      6  C   UNL     1       7.066  26.769  16.691  0.00  0.00    +0.011 A 
ATOM      7  C   UNL     1       6.777  25.420  16.766  0.00  0.00    -0.013 A 
ATOM      8  C   UNL     1       6.179  24.766  15.666  0.00  0.00    -0.028 A 
ATOM      9  C   UNL     1       5.844  23.294  15.758  0.00  0.00    +0.045 C 
ATOM     10  C   UNL     1       5.884  25.495  14.462  0.00  0.00    +0.068 A 
ATOM     11  C   UNL     1       5.242  24.872  13.236  0.00  0.00    +0.259 A 
ATOM     12  O   UNL     1       4.949  23.690  13.213  0.00  0.00    -0.267 OA
ATOM     13  N   UNL     1       4.986  25.674  12.105  0.00  0.00    -0.311 N 
ATOM     14  H   UNL     1       4.597  25.304  11.367  0.00  0.00    +0.170 HD
ENDROOT
BRANCH   7  15
ATOM     15  C   UNL     1       7.061  24.755  17.959  0.00  0.00    -0.007 A 
ATOM     16  C   UNL     1       6.386  25.018  19.196  0.00  0.00    +0.008 A 
ATOM     17  C   UNL     1       5.349  25.980  19.283  0.00  0.00    +0.010 A 
ATOM     18  C   UNL     1       4.711  26.224  20.501  0.00  0.00    +0.001 A 
ATOM     19  C   UNL     1       5.094  25.526  21.642  0.00  0.00    +0.002 A 
ATOM     20  C   UNL     1       6.113  24.587  21.556  0.00  0.00    +0.028 A 
ATOM     21  C   UNL     1       6.761  24.340  20.315  0.00  0.00    +0.072 A 
ATOM     22  N   UNL     1       7.767  23.389  20.264  0.00  0.00    -0.255 NA
ATOM     23  C   UNL     1       8.414  23.115  19.115  0.00  0.00    +0.112 A 
ATOM     24  C   UNL     1       8.069  23.805  17.945  0.00  0.00    +0.029 A 
ENDBRANCH   7  15
TORSDOF 1
ENDMDL
MODEL 3
REMARK VINA RESULT:      -8.3      3.814      6.162
REMARK  Name = 6GIP_EUN.pdb
REMARK  3 active torsions:
REMARK  status: ('A' for Active; 'I' for Inactive)
REMARK    1  A    between atoms: _1  and  _2
REMARK    2  A    between atoms: _9  and  _10
REMARK    3  A    between atoms: _20  and  _21
REMARK                            x       y       z     vdW  Elec       q    Type
REMARK                         _______ _______ _______ _____ _____    ______ ____
ROOT
ATOM      1  C   UNL     1       7.352  16.178  18.796  0.00  0.00    +0.086 C 
ATOM      2  C   UNL     1       7.099  17.206  17.727  0.00  0.00    +0.107 A 
ATOM      3  N   UNL     1       6.593  18.474  18.124  0.00  0.00    -0.234 NA
ATOM      4  C   UNL     1       6.339  19.492  17.119  0.00  0.00    +0.078 A 
ATOM      5  C   UNL     1       5.841  20.737  17.580  0.00  0.00    +0.029 A 
ATOM      6  C   UNL     1       5.584  21.769  16.706  0.00  0.00    +0.011 A 
ATOM      7  C   UNL     1       5.789  21.586  15.352  0.00  0.00    -0.013 A 
ATOM      8  C   UNL     1       6.287  20.352  14.877  0.00  0.00    -0.028 A 
ATOM      9  C   UNL     1       6.532  20.162  13.396  0.00  0.00    +0.045 C 
ATOM     10  C   UNL     1       6.566  19.281  15.793  0.00  0.00    +0.068 A 
ATOM     11  C   UNL     1       7.103  17.927  15.369  0.00  0.00    +0.259 A 
ATOM     12  O   UNL     1       7.318  17.676  14.196  0.00  0.00    -0.267 OA
ATOM     13  N   UNL     1       7.351  16.942  16.347  0.00  0.00    -0.311 N 
ATOM     14  H   UNL     1       7.677  16.127  16.095  0.00  0.00    +0.170 HD
ENDROOT
BRANCH   7  15
ATOM     15  C   UNL     1       5.525  22.657  14.499  0.00  0.00    -0.007 A 
ATOM     16  C   UNL     1       6.418  23.763  14.311  0.00  0.00    +0.008 A 
ATOM     17  C   UNL     1       7.666  23.829  14.980  0.00  0.00    +0.010 A 
ATOM     18  C   UNL     1       8.516  24.919  14.787  0.00  0.00    +0.001 A 
ATOM     19  C   UNL     1       8.141  25.954  13.936  0.00  0.00    +0.002 A 
ATOM     20  C   UNL     1       6.917  25.890  13.284  0.00  0.00    +0.028 A 
ATOM     21  C   UNL     1       6.053  24.779  13.482  0.00  0.00    +0.072 A 
ATOM     22  N   UNL     1       4.844  24.744  12.807  0.00  0.00    -0.255 NA
ATOM     23  C   UNL     1       3.988  23.716  12.959  0.00  0.00    +0.112 A 
ATOM     24  C   UNL     1       4.320  22.659  13.817  0.00  0.00    +0.029 A 
ENDBRANCH   7  15
TORSDOF 1
ENDMDL
MODEL 4
REMARK VINA RESULT:      -8.0      0.972      2.519
REMARK  Name = 6GIP_EUN.pdb
REMARK  3 active torsions:
REMARK  status: ('A' for Active; 'I' for Inactive)
REMARK    1  A    between atoms: _1  and  _2
REMARK    2  A    between atoms: _9  and  _10
REMARK    3  A    between atoms: _20  and  _21
REMARK                            x       y       z     vdW  Elec       q    Type
REMARK                         _______ _______ _______ _____ _____    ______ ____
ROOT
ATOM      1  C   UNL     1       6.486  20.134  11.276  0.00  0.00    +0.086 C 
ATOM      2  C   UNL     1       6.624  20.967  12.521  0.00  0.00    +0.107 A 
ATOM      3  N   UNL     1       6.062  20.468  13.727  0.00  0.00    -0.234 NA
ATOM      4  C   UNL     1       6.178  21.244  14.949  0.00  0.00    +0.078 A 
ATOM      5  C   UNL     1       5.602  20.688  16.119  0.00  0.00    +0.029 A 
ATOM      6  C   UNL     1       5.675  21.341  17.329  0.00  0.00    +0.011 A 
ATOM      7  C   UNL     1       6.296  22.573  17.405  0.00  0.00    -0.013 A 
ATOM      8  C   UNL     1       6.876  23.141  16.249  0.00  0.00    -0.028 A 
ATOM      9  C   UNL     1       7.575  24.479  16.339  0.00  0.00    +0.045 C 
ATOM     10  C   UNL     1       6.810  22.450  14.990  0.00  0.00    +0.068 A 
ATOM     11  C   UNL     1       7.407  22.985  13.702  0.00  0.00    +0.259 A 
ATOM     12  O   UNL     1       7.977  24.062  13.674  0.00  0.00    -0.267 OA
ATOM     13  N   UNL     1       7.295  22.227  12.518  0.00  0.00    -0.311 N 
ATOM     14  H   UNL     1       7.656  22.545  11.742  0.00  0.00    +0.170 HD
ENDROOT
BRANCH   7  15
ATOM     15  C   UNL     1       6.356  23.200  18.649  0.00  0.00    -0.007 A 
ATOM     16  C   UNL     1       7.281  22.833  19.681  0.00  0.00    +0.008 A 
ATOM     17  C   UNL     1       8.230  21.798  19.490  0.00  0.00    +0.010 A 
ATOM     18  C   UNL     1       9.116  21.453  20.512  0.00  0.00    +0.001 A 
ATOM     19  C   UNL     1       9.070  22.123  21.731  0.00  0.00    +0.002 A 
ATOM     20  C   UNL     1       8.138  23.134  21.918  0.00  0.00    +0.028 A 
ATOM     21  C   UNL     1       7.237  23.484  20.875  0.00  0.00    +0.072 A 
ATOM     22  N   UNL     1       6.326  24.505  21.094  0.00  0.00    -0.255 NA
ATOM     23  C   UNL     1       5.450  24.876  20.141  0.00  0.00    +0.112 A 
ATOM     24  C   UNL     1       5.452  24.219  18.904  0.00  0.00    +0.029 A 
ENDBRANCH   7  15
TORSDOF 1
ENDMDL
MODEL 5
REMARK VINA RESULT:      -7.9      8.400     11.542
REMARK  Name = 6GIP_EUN.pdb
REMARK  3 active torsions:
REMARK  status: ('A' for Active; 'I' for Inactive)
REMARK    1  A    between atoms: _1  and  _2
REMARK    2  A    between atoms: _9  and  _10
REMARK    3  A    between atoms: _20  and  _21
REMARK                            x       y       z     vdW  Elec       q    Type
REMARK                         _______ _______ _______ _____ _____    ______ ____
ROOT
ATOM      1  C   UNL     1      11.496  20.068  27.270  0.00  0.00    +0.086 C 
ATOM      2  C   UNL     1      11.954  20.603  25.940  0.00  0.00    +0.107 A 
ATOM      3  N   UNL     1      13.146  21.376  25.905  0.00  0.00    -0.234 NA
ATOM      4  C   UNL     1      13.620  21.907  24.638  0.00  0.00    +0.078 A 
ATOM      5  C   UNL     1      14.819  22.663  24.668  0.00  0.00    +0.029 A 
ATOM      6  C   UNL     1      15.355  23.195  23.517  0.00  0.00    +0.011 A 
ATOM      7  C   UNL     1      14.705  23.012  22.312  0.00  0.00    -0.013 A 
ATOM      8  C   UNL     1      13.511  22.259  22.264  0.00  0.00    -0.028 A 
ATOM      9  C   UNL     1      12.813  22.042  20.940  0.00  0.00    +0.045 C 
ATOM     10  C   UNL     1      12.960  21.695  23.466  0.00  0.00    +0.068 A 
ATOM     11  C   UNL     1      11.685  20.873  23.505  0.00  0.00    +0.259 A 
ATOM     12  O   UNL     1      11.047  20.657  22.489  0.00  0.00    -0.267 OA
ATOM     13  N   UNL     1      11.230  20.357  24.735  0.00  0.00    -0.311 N 
ATOM     14  H   UNL     1      10.465  19.860  24.761  0.00  0.00    +0.170 HD
ENDROOT
BRANCH   7  15
ATOM     15  C   UNL     1      15.283  23.559  21.167  0.00  0.00    -0.007 A 
ATOM     16  C   UNL     1      16.511  23.089  20.594  0.00  0.00    +0.008 A 
ATOM     17  C   UNL     1      17.222  22.000  21.158  0.00  0.00    +0.010 A 
ATOM     18  C   UNL     1      18.419  21.565  20.587  0.00  0.00    +0.001 A 
ATOM     19  C   UNL     1      18.927  22.203  19.460  0.00  0.00    +0.002 A 
ATOM     20  C   UNL     1      18.232  23.272  18.911  0.00  0.00    +0.028 A 
ATOM     21  C   UNL     1      17.013  23.713  19.494  0.00  0.00    +0.072 A 
ATOM     22  N   UNL     1      16.341  24.777  18.914  0.00  0.00    -0.255 NA
ATOM     23  C   UNL     1      15.183  25.236  19.425  0.00  0.00    +0.112 A 
ATOM     24  C   UNL     1      14.643  24.631  20.567  0.00  0.00    +0.029 A 
ENDBRANCH   7  15
TORSDOF 1
ENDMDL
MODEL 6
REMARK VINA RESULT:      -7.9      7.511     10.689
REMARK  Name = 6GIP_EUN.pdb
REMARK  3 active torsions:
REMARK  status: ('A' for Active; 'I' for Inactive)
REMARK    1  A    between atoms: _1  and  _2
REMARK    2  A    between atoms: _9  and  _10
REMARK    3  A    between atoms: _20  and  _21
REMARK                            x       y       z     vdW  Elec       q    Type
REMARK                         _______ _______ _______ _____ _____    ______ ____
ROOT
ATOM      1  C   UNL     1      12.331  22.368  27.166  0.00  0.00    +0.086 C 
ATOM      2  C   UNL     1      12.503  22.470  25.675  0.00  0.00    +0.107 A 
ATOM      3  N   UNL     1      13.825  22.548  25.157  0.00  0.00    -0.234 NA
ATOM      4  C   UNL     1      14.029  22.645  23.722  0.00  0.00    +0.078 A 
ATOM      5  C   UNL     1      15.371  22.713  23.268  0.00  0.00    +0.029 A 
ATOM      6  C   UNL     1      15.666  22.791  21.926  0.00  0.00    +0.011 A 
ATOM      7  C   UNL     1      14.641  22.830  21.001  0.00  0.00    -0.013 A 
ATOM      8  C   UNL     1      13.298  22.761  21.436  0.00  0.00    -0.028 A 
ATOM      9  C   UNL     1      12.178  22.781  20.420  0.00  0.00    +0.045 C 
ATOM     10  C   UNL     1      12.993  22.667  22.838  0.00  0.00    +0.068 A 
ATOM     11  C   UNL     1      11.583  22.587  23.390  0.00  0.00    +0.259 A 
ATOM     12  O   UNL     1      10.616  22.610  22.649  0.00  0.00    -0.267 OA
ATOM     13  N   UNL     1      11.388  22.490  24.783  0.00  0.00    -0.311 N 
ATOM     14  H   UNL     1      10.541  22.439  25.119  0.00  0.00    +0.170 HD
ENDROOT
BRANCH   7  15
ATOM     15  C   UNL     1      14.980  22.901  19.650  0.00  0.00    -0.007 A 
ATOM     16  C   UNL     1      15.203  24.132  18.950  0.00  0.00    +0.008 A 
ATOM     17  C   UNL     1      15.111  25.384  19.608  0.00  0.00    +0.010 A 
ATOM     18  C   UNL     1      15.326  26.571  18.904  0.00  0.00    +0.001 A 
ATOM     19  C   UNL     1      15.627  26.531  17.546  0.00  0.00    +0.002 A 
ATOM     20  C   UNL     1      15.713  25.304  16.902  0.00  0.00    +0.028 A 
ATOM     21  C   UNL     1      15.494  24.098  17.621  0.00  0.00    +0.072 A 
ATOM     22  N   UNL     1      15.598  22.891  16.949  0.00  0.00    -0.255 NA
ATOM     23  C   UNL     1      15.400  21.719  17.581  0.00  0.00    +0.112 A 
ATOM     24  C   UNL     1      15.081  21.713  18.945  0.00  0.00    +0.029 A 
ENDBRANCH   7  15
TORSDOF 1
ENDMDL
MODEL 7
REMARK VINA RESULT:      -7.8      3.093      7.101
REMARK  Name = 6GIP_EUN.pdb
REMARK  3 active torsions:
REMARK  status: ('A' for Active; 'I' for Inactive)
REMARK    1  A    between atoms: _1  and  _2
REMARK    2  A    between atoms: _9  and  _10
REMARK    3  A    between atoms: _20  and  _21
REMARK                            x       y       z     vdW  Elec       q    Type
REMARK                         _______ _______ _______ _____ _____    ______ ____
ROOT
ATOM      1  C   UNL     1       9.332  21.091  21.073  0.00  0.00    +0.086 C 
ATOM      2  C   UNL     1       8.850  21.466  19.698  0.00  0.00    +0.107 A 
ATOM      3  N   UNL     1       7.630  20.900  19.238  0.00  0.00    -0.234 NA
ATOM      4  C   UNL     1       7.133  21.241  17.916  0.00  0.00    +0.078 A 
ATOM      5  C   UNL     1       5.907  20.650  17.520  0.00  0.00    +0.029 A 
ATOM      6  C   UNL     1       5.349  20.923  16.292  0.00  0.00    +0.011 A 
ATOM      7  C   UNL     1       6.002  21.768  15.416  0.00  0.00    -0.013 A 
ATOM      8  C   UNL     1       7.224  22.367  15.796  0.00  0.00    -0.028 A 
ATOM      9  C   UNL     1       7.926  23.310  14.844  0.00  0.00    +0.045 C 
ATOM     10  C   UNL     1       7.798  22.089  17.084  0.00  0.00    +0.068 A 
ATOM     11  C   UNL     1       9.103  22.690  17.573  0.00  0.00    +0.259 A 
ATOM     12  O   UNL     1       9.747  23.449  16.870  0.00  0.00    -0.267 OA
ATOM     13  N   UNL     1       9.580  22.360  18.857  0.00  0.00    -0.311 N 
ATOM     14  H   UNL     1      10.364  22.722  19.156  0.00  0.00    +0.170 HD
ENDROOT
BRANCH   7  15
ATOM     15  C   UNL     1       5.401  22.028  14.185  0.00  0.00    -0.007 A 
ATOM     16  C   UNL     1       5.538  21.178  13.038  0.00  0.00    +0.008 A 
ATOM     17  C   UNL     1       6.295  19.981  13.090  0.00  0.00    +0.010 A 
ATOM     18  C   UNL     1       6.420  19.173  11.959  0.00  0.00    +0.001 A 
ATOM     19  C   UNL     1       5.805  19.541  10.767  0.00  0.00    +0.002 A 
ATOM     20  C   UNL     1       5.067  20.716  10.716  0.00  0.00    +0.028 A 
ATOM     21  C   UNL     1       4.941  21.537  11.869  0.00  0.00    +0.072 A 
ATOM     22  N   UNL     1       4.188  22.697  11.784  0.00  0.00    -0.255 NA
ATOM     23  C   UNL     1       4.036  23.511  12.846  0.00  0.00    +0.112 A 
ATOM     24  C   UNL     1       4.650  23.185  14.062  0.00  0.00    +0.029 A 
ENDBRANCH   7  15
TORSDOF 1
ENDMDL
MODEL 8
REMARK VINA RESULT:      -7.8      7.465     10.705
REMARK  Name = 6GIP_EUN.pdb
REMARK  3 active torsions:
REMARK  status: ('A' for Active; 'I' for Inactive)
REMARK    1  A    between atoms: _1  and  _2
REMARK    2  A    between atoms: _9  and  _10
REMARK    3  A    between atoms: _20  and  _21
REMARK                            x       y       z     vdW  Elec       q    Type
REMARK                         _______ _______ _______ _____ _____    ______ ____
ROOT
ATOM      1  C   UNL     1      11.997  21.925  26.208  0.00  0.00    +0.086 C 
ATOM      2  C   UNL     1      12.266  22.456  24.826  0.00  0.00    +0.107 A 
ATOM      3  N   UNL     1      13.613  22.726  24.464  0.00  0.00    -0.234 NA
ATOM      4  C   UNL     1      13.912  23.238  23.137  0.00  0.00    +0.078 A 
ATOM      5  C   UNL     1      15.275  23.480  22.835  0.00  0.00    +0.029 A 
ATOM      6  C   UNL     1      15.658  23.951  21.599  0.00  0.00    +0.011 A 
ATOM      7  C   UNL     1      14.700  24.216  20.641  0.00  0.00    -0.013 A 
ATOM      8  C   UNL     1      13.336  23.978  20.925  0.00  0.00    -0.028 A 
ATOM      9  C   UNL     1      12.290  24.248  19.867  0.00  0.00    +0.045 C 
ATOM     10  C   UNL     1      12.941  23.475  22.212  0.00  0.00    +0.068 A 
ATOM     11  C   UNL     1      11.502  23.190  22.600  0.00  0.00    +0.259 A 
ATOM     12  O   UNL     1      10.589  23.391  21.818  0.00  0.00    -0.267 OA
ATOM     13  N   UNL     1      11.217  22.691  23.887  0.00  0.00    -0.311 N 
ATOM     14  H   UNL     1      10.352  22.516  24.123  0.00  0.00    +0.170 HD
ENDROOT
BRANCH   7  15
ATOM     15  C   UNL     1      15.127  24.683  19.398  0.00  0.00    -0.007 A 
ATOM     16  C   UNL     1      15.412  23.830  18.282  0.00  0.00    +0.008 A 
ATOM     17  C   UNL     1      15.253  22.424  18.367  0.00  0.00    +0.010 A 
ATOM     18  C   UNL     1      15.542  21.612  17.269  0.00  0.00    +0.001 A 
ATOM     19  C   UNL     1      15.996  22.179  16.082  0.00  0.00    +0.002 A 
ATOM     20  C   UNL     1      16.155  23.555  16.002  0.00  0.00    +0.028 A 
ATOM     21  C   UNL     1      15.858  24.380  17.121  0.00  0.00    +0.072 A 
ATOM     22  N   UNL     1      16.019  25.751  17.002  0.00  0.00    -0.255 NA
ATOM     23  C   UNL     1      15.754  26.578  18.030  0.00  0.00    +0.112 A 
ATOM     24  C   UNL     1      15.308  26.049  19.248  0.00  0.00    +0.029 A 
ENDBRANCH   7  15
TORSDOF 1
ENDMDL
MODEL 9
REMARK VINA RESULT:      -7.7      2.562      6.166
REMARK  Name = 6GIP_EUN.pdb
REMARK  3 active torsions:
REMARK  status: ('A' for Active; 'I' for Inactive)
REMARK    1  A    between atoms: _1  and  _2
REMARK    2  A    between atoms: _9  and  _10
REMARK    3  A    between atoms: _20  and  _21
REMARK                            x       y       z     vdW  Elec       q    Type
REMARK                         _______ _______ _______ _____ _____    ______ ____
ROOT
ATOM      1  C   UNL     1      10.803  23.142  22.712  0.00  0.00    +0.086 C 
ATOM      2  C   UNL     1      10.268  23.162  21.306  0.00  0.00    +0.107 A 
ATOM      3  N   UNL     1       8.861  23.089  21.124  0.00  0.00    -0.234 NA
ATOM      4  C   UNL     1       8.308  23.108  19.781  0.00  0.00    +0.078 A 
ATOM      5  C   UNL     1       6.897  23.039  19.666  0.00  0.00    +0.029 A 
ATOM      6  C   UNL     1       6.279  23.066  18.436  0.00  0.00    +0.011 A 
ATOM      7  C   UNL     1       7.044  23.135  17.288  0.00  0.00    -0.013 A 
ATOM      8  C   UNL     1       8.452  23.205  17.384  0.00  0.00    -0.028 A 
ATOM      9  C   UNL     1       9.287  23.303  16.126  0.00  0.00    +0.045 C 
ATOM     10  C   UNL     1       9.093  23.190  18.671  0.00  0.00    +0.068 A 
ATOM     11  C   UNL     1      10.596  23.264  18.865  0.00  0.00    +0.259 A 
ATOM     12  O   UNL     1      11.350  23.330  17.909  0.00  0.00    -0.267 OA
ATOM     13  N   UNL     1      11.129  23.249  20.170  0.00  0.00    -0.311 N 
ATOM     14  H   UNL     1      12.032  23.296  20.290  0.00  0.00    +0.170 HD
ENDROOT
BRANCH   7  15
ATOM     15  C   UNL     1       6.383  23.168  16.061  0.00  0.00    -0.007 A 
ATOM     16  C   UNL     1       6.082  24.377  15.352  0.00  0.00    +0.008 A 
ATOM     17  C   UNL     1       6.466  25.645  15.855  0.00  0.00    +0.010 A 
ATOM     18  C   UNL     1       6.157  26.810  15.150  0.00  0.00    +0.001 A 
ATOM     19  C   UNL     1       5.462  26.733  13.947  0.00  0.00    +0.002 A 
ATOM     20  C   UNL     1       5.083  25.491  13.457  0.00  0.00    +0.028 A 
ATOM     21  C   UNL     1       5.400  24.306  14.177  0.00  0.00    +0.072 A 
ATOM     22  N   UNL     1       5.014  23.083  13.653  0.00  0.00    -0.255 NA
ATOM     23  C   UNL     1       5.288  21.931  14.293  0.00  0.00    +0.112 A 
ATOM     24  C   UNL     1       5.974  21.963  15.514  0.00  0.00    +0.029 A 
ENDBRANCH   7  15
TORSDOF 1
ENDMDL
