MODEL 1
REMARK VINA RESULT:      -8.3      0.000      0.000
REMARK  Name = 5S88_LU8.pdb
REMARK  6 active torsions:
REMARK  status: ('A' for Active; 'I' for Inactive)
REMARK    1  A    between atoms: _2  and  _3
REMARK    2  A    between atoms: _5  and  _6
REMARK    3  A    between atoms: _10  and  _11
REMARK    4  A    between atoms: _14  and  _15
REMARK    5  A    between atoms: _27  and  _28
REMARK    6  A    between atoms: _30  and  _31
REMARK                            x       y       z     vdW  Elec       q    Type
REMARK                         _______ _______ _______ _____ _____    ______ ____
ROOT
ATOM      1  C   UNL     1      11.649  19.477  27.489  0.00  0.00    +0.015 A 
ATOM      2  C   UNL     1      12.427  19.974  26.454  0.00  0.00    -0.019 A 
ATOM      3  C   UNL     1      13.168  19.015  25.571  0.00  0.00    +0.031 C 
ATOM      4  C   UNL     1      12.507  21.371  26.182  0.00  0.00    +0.015 A 
ATOM      5  C   UNL     1      11.710  22.144  26.980  0.00  0.00    +0.099 A 
ATOM      6  N   UNL     1      10.959  21.689  27.940  0.00  0.00    -0.242 NA
ATOM      7  C   UNL     1      10.909  20.381  28.222  0.00  0.00    +0.099 A 
ENDROOT
BRANCH   1  12
ATOM      8  C   UNL     1      10.681  15.814  27.411  0.00  0.00    +0.175 A 
ATOM      9  C   UNL     1      11.626  15.268  28.255  0.00  0.00    +0.206 A 
ATOM     10  C   UNL     1      12.524  16.094  28.893  0.00  0.00    +0.175 A 
ATOM     11  C   UNL     1      12.501  17.451  28.650  0.00  0.00    +0.040 A 
ATOM     12  C   UNL     1      11.568  18.018  27.768  0.00  0.00    +0.007 A 
ATOM     13  C   UNL     1      10.630  17.177  27.171  0.00  0.00    +0.040 A 
BRANCH   8  15
ATOM     14  C   UNL     1       8.413  15.104  27.229  0.00  0.00    +0.253 C 
ATOM     15  O   UNL     1       9.805  14.922  26.880  0.00  0.00    -0.468 OA
ENDBRANCH   8  15
BRANCH   9  16
ATOM     16  O   UNL     1      11.686  13.910  28.458  0.00  0.00    -0.465 OA
ATOM     17  C   UNL     1      10.966  13.375  29.517  0.00  0.00    +0.253 C 
ENDBRANCH   9  16
BRANCH  10  18
ATOM     18  O   UNL     1      13.437  15.474  29.730  0.00  0.00    -0.468 OA
ATOM     19  C   UNL     1      14.336  16.236  30.544  0.00  0.00    +0.253 C 
ENDBRANCH  10  18
ENDBRANCH   1  12
BRANCH   4  20
ATOM     20  C   UNL     1      13.316  21.982  25.118  0.00  0.00    +0.001 A 
ATOM     21  C   UNL     1      12.780  22.138  23.789  0.00  0.00    -0.000 A 
ATOM     22  C   UNL     1      13.505  22.687  22.761  0.00  0.00    -0.004 A 
ATOM     23  C   UNL     1      14.837  23.082  22.968  0.00  0.00    -0.022 A 
ATOM     24  C   UNL     1      15.351  22.941  24.275  0.00  0.00    -0.004 A 
ATOM     25  C   UNL     1      14.658  22.380  25.287  0.00  0.00    -0.000 A 
BRANCH  23  26
ATOM     26  C   UNL     1      15.520  23.741  21.824  0.00  0.00    +0.025 C 
ATOM     27  C   UNL     1      14.609  24.258  20.751  0.00  0.00    +0.022 C 
ATOM     28  C   UNL     1      15.490  25.037  19.778  0.00  0.00    +0.072 C 
ATOM     29  N   UNL     1      16.406  24.126  19.032  0.00  0.00    -0.271 NA
ATOM     30  C   UNL     1      15.651  23.216  18.135  0.00  0.00    +0.090 C 
ATOM     31  C   UNL     1      17.306  23.399  19.962  0.00  0.00    +0.072 C 
ATOM     32  C   UNL     1      16.620  22.848  21.228  0.00  0.00    +0.022 C 
ENDBRANCH  23  26
ENDBRANCH   4  20
TORSDOF 6
ENDMDL
MODEL 2
REMARK VINA RESULT:      -8.2      0.240      2.255
REMARK  Name = 5S88_LU8.pdb
REMARK  6 active torsions:
REMARK  status: ('A' for Active; 'I' for Inactive)
REMARK    1  A    between atoms: _2  and  _3
REMARK    2  A    between atoms: _5  and  _6
REMARK    3  A    between atoms: _10  and  _11
REMARK    4  A    between atoms: _14  and  _15
REMARK    5  A    between atoms: _27  and  _28
REMARK    6  A    between atoms: _30  and  _31
REMARK                            x       y       z     vdW  Elec       q    Type
REMARK                         _______ _______ _______ _____ _____    ______ ____
ROOT
ATOM      1  C   UNL     1      11.784  19.221  27.495  0.00  0.00    +0.015 A 
ATOM      2  C   UNL     1      12.551  19.764  26.476  0.00  0.00    -0.019 A 
ATOM      3  C   UNL     1      13.378  18.854  25.618  0.00  0.00    +0.031 C 
ATOM      4  C   UNL     1      12.539  21.162  26.194  0.00  0.00    +0.015 A 
ATOM      5  C   UNL     1      11.672  21.882  26.967  0.00  0.00    +0.099 A 
ATOM      6  N   UNL     1      10.931  21.382  27.912  0.00  0.00    -0.242 NA
ATOM      7  C   UNL     1      10.966  20.075  28.203  0.00  0.00    +0.099 A 
ENDROOT
BRANCH   1  12
ATOM      8  C   UNL     1      12.603  15.815  28.940  0.00  0.00    +0.175 A 
ATOM      9  C   UNL     1      11.618  15.035  28.368  0.00  0.00    +0.206 A 
ATOM     10  C   UNL     1      10.742  15.602  27.469  0.00  0.00    +0.175 A 
ATOM     11  C   UNL     1      10.825  16.949  27.185  0.00  0.00    +0.040 A 
ATOM     12  C   UNL     1      11.799  17.761  27.785  0.00  0.00    +0.007 A 
ATOM     13  C   UNL     1      12.714  17.164  28.650  0.00  0.00    +0.040 A 
BRANCH   8  15
ATOM     14  C   UNL     1      14.406  15.956  30.492  0.00  0.00    +0.253 C 
ATOM     15  O   UNL     1      13.452  15.147  29.764  0.00  0.00    -0.468 OA
ENDBRANCH   8  15
BRANCH   9  16
ATOM     16  O   UNL     1      11.499  13.705  28.690  0.00  0.00    -0.465 OA
ATOM     17  C   UNL     1      10.746  13.368  29.806  0.00  0.00    +0.253 C 
ENDBRANCH   9  16
BRANCH  10  18
ATOM     18  O   UNL     1       9.787  14.757  26.930  0.00  0.00    -0.468 OA
ATOM     19  C   UNL     1       8.403  14.877  27.281  0.00  0.00    +0.253 C 
ENDBRANCH  10  18
ENDBRANCH   1  12
BRANCH   4  20
ATOM     20  C   UNL     1      13.329  21.821  25.144  0.00  0.00    +0.001 A 
ATOM     21  C   UNL     1      12.827  21.907  23.795  0.00  0.00    -0.000 A 
ATOM     22  C   UNL     1      13.537  22.498  22.781  0.00  0.00    -0.004 A 
ATOM     23  C   UNL     1      14.823  23.009  23.022  0.00  0.00    -0.022 A 
ATOM     24  C   UNL     1      15.302  22.936  24.348  0.00  0.00    -0.004 A 
ATOM     25  C   UNL     1      14.626  22.335  25.348  0.00  0.00    -0.000 A 
BRANCH  23  26
ATOM     26  C   UNL     1      15.486  23.704  21.888  0.00  0.00    +0.025 C 
ATOM     27  C   UNL     1      14.555  24.262  20.852  0.00  0.00    +0.022 C 
ATOM     28  C   UNL     1      15.420  25.069  19.889  0.00  0.00    +0.072 C 
ATOM     29  N   UNL     1      16.316  24.181  19.093  0.00  0.00    -0.271 NA
ATOM     30  C   UNL     1      15.538  23.306  18.181  0.00  0.00    +0.090 C 
ATOM     31  C   UNL     1      17.231  23.418  19.978  0.00  0.00    +0.072 C 
ATOM     32  C   UNL     1      16.569  22.826  21.239  0.00  0.00    +0.022 C 
ENDBRANCH  23  26
ENDBRANCH   4  20
TORSDOF 6
ENDMDL
MODEL 3
REMARK VINA RESULT:      -7.8      7.867     10.560
REMARK  Name = 5S88_LU8.pdb
REMARK  6 active torsions:
REMARK  status: ('A' for Active; 'I' for Inactive)
REMARK    1  A    between atoms: _2  and  _3
REMARK    2  A    between atoms: _5  and  _6
REMARK    3  A    between atoms: _10  and  _11
REMARK    4  A    between atoms: _14  and  _15
REMARK    5  A    between atoms: _27  and  _28
REMARK    6  A    between atoms: _30  and  _31
REMARK                            x       y       z     vdW  Elec       q    Type
REMARK                         _______ _______ _______ _____ _____    ______ ____
ROOT
ATOM      1  C   UNL     1      10.680  21.670  20.363  0.00  0.00    +0.015 A 
ATOM      2  C   UNL     1      10.017  22.404  19.391  0.00  0.00    -0.019 A 
ATOM      3  C   UNL     1      10.729  23.544  18.725  0.00  0.00    +0.031 C 
ATOM      4  C   UNL     1       8.693  22.077  18.978  0.00  0.00    +0.015 A 
ATOM      5  C   UNL     1       8.181  20.957  19.574  0.00  0.00    +0.099 A 
ATOM      6  N   UNL     1       8.800  20.246  20.470  0.00  0.00    -0.242 NA
ATOM      7  C   UNL     1      10.029  20.572  20.887  0.00  0.00    +0.099 A 
ENDROOT
BRANCH   1  12
ATOM      8  C   UNL     1      13.676  22.817  22.379  0.00  0.00    +0.175 A 
ATOM      9  C   UNL     1      14.715  22.465  21.541  0.00  0.00    +0.206 A 
ATOM     10  C   UNL     1      14.436  21.923  20.306  0.00  0.00    +0.175 A 
ATOM     11  C   UNL     1      13.128  21.694  19.936  0.00  0.00    +0.040 A 
ATOM     12  C   UNL     1      12.062  22.015  20.790  0.00  0.00    +0.007 A 
ATOM     13  C   UNL     1      12.356  22.614  22.015  0.00  0.00    +0.040 A 
BRANCH   8  15
ATOM     14  C   UNL     1      13.439  22.883  24.749  0.00  0.00    +0.253 C 
ATOM     15  O   UNL     1      14.056  23.398  23.546  0.00  0.00    -0.468 OA
ENDBRANCH   8  15
BRANCH   9  16
ATOM     16  O   UNL     1      16.022  22.642  21.929  0.00  0.00    -0.465 OA
ATOM     17  C   UNL     1      16.616  23.871  21.683  0.00  0.00    +0.253 C 
ENDBRANCH   9  16
BRANCH  10  18
ATOM     18  O   UNL     1      15.529  21.603  19.519  0.00  0.00    -0.468 OA
ATOM     19  C   UNL     1      15.857  22.369  18.354  0.00  0.00    +0.253 C 
ENDBRANCH  10  18
ENDBRANCH   1  12
BRANCH   4  20
ATOM     20  C   UNL     1       7.915  22.809  17.968  0.00  0.00    +0.001 A 
ATOM     21  C   UNL     1       8.066  22.505  16.567  0.00  0.00    -0.000 A 
ATOM     22  C   UNL     1       7.373  23.173  15.589  0.00  0.00    -0.004 A 
ATOM     23  C   UNL     1       6.509  24.228  15.929  0.00  0.00    -0.022 A 
ATOM     24  C   UNL     1       6.355  24.510  17.304  0.00  0.00    -0.004 A 
ATOM     25  C   UNL     1       7.049  23.878  18.272  0.00  0.00    -0.000 A 
BRANCH  23  26
ATOM     26  C   UNL     1       5.738  24.842  14.817  0.00  0.00    +0.025 C 
ATOM     27  C   UNL     1       5.274  23.883  13.761  0.00  0.00    +0.022 C 
ATOM     28  C   UNL     1       4.371  24.682  12.825  0.00  0.00    +0.072 C 
ATOM     29  N   UNL     1       5.152  25.687  12.048  0.00  0.00    -0.271 NA
ATOM     30  C   UNL     1       6.097  25.028  11.111  0.00  0.00    +0.090 C 
ATOM     31  C   UNL     1       5.821  26.655  12.952  0.00  0.00    +0.072 C 
ATOM     32  C   UNL     1       6.491  26.027  14.191  0.00  0.00    +0.022 C 
ENDBRANCH  23  26
ENDBRANCH   4  20
TORSDOF 6
ENDMDL
MODEL 4
REMARK VINA RESULT:      -7.8      8.533     12.543
REMARK  Name = 5S88_LU8.pdb
REMARK  6 active torsions:
REMARK  status: ('A' for Active; 'I' for Inactive)
REMARK    1  A    between atoms: _2  and  _3
REMARK    2  A    between atoms: _5  and  _6
REMARK    3  A    between atoms: _10  and  _11
REMARK    4  A    between atoms: _14  and  _15
REMARK    5  A    between atoms: _27  and  _28
REMARK    6  A    between atoms: _30  and  _31
REMARK                            x       y       z     vdW  Elec       q    Type
REMARK                         _______ _______ _______ _____ _____    ______ ____
ROOT
ATOM      1  C   UNL     1       6.694  24.403  18.411  0.00  0.00    +0.015 A 
ATOM      2  C   UNL     1       7.637  23.611  19.049  0.00  0.00    -0.019 A 
ATOM      3  C   UNL     1       8.771  23.039  18.252  0.00  0.00    +0.031 C 
ATOM      4  C   UNL     1       7.581  23.362  20.451  0.00  0.00    +0.015 A 
ATOM      5  C   UNL     1       6.568  24.018  21.096  0.00  0.00    +0.099 A 
ATOM      6  N   UNL     1       5.690  24.781  20.514  0.00  0.00    -0.242 NA
ATOM      7  C   UNL     1       5.719  24.988  19.191  0.00  0.00    +0.099 A 
ENDROOT
BRANCH   1  12
ATOM      8  C   UNL     1       6.359  24.080  14.651  0.00  0.00    +0.175 A 
ATOM      9  C   UNL     1       6.777  25.327  14.234  0.00  0.00    +0.206 A 
ATOM     10  C   UNL     1       7.227  26.237  15.165  0.00  0.00    +0.175 A 
ATOM     11  C   UNL     1       7.213  25.912  16.505  0.00  0.00    +0.040 A 
ATOM     12  C   UNL     1       6.758  24.660  16.947  0.00  0.00    +0.007 A 
ATOM     13  C   UNL     1       6.358  23.729  15.990  0.00  0.00    +0.040 A 
BRANCH   8  15
ATOM     14  C   UNL     1       4.612  22.805  13.649  0.00  0.00    +0.253 C 
ATOM     15  O   UNL     1       5.993  23.237  13.650  0.00  0.00    -0.468 OA
ENDBRANCH   8  15
BRANCH   9  16
ATOM     16  O   UNL     1       6.742  25.673  12.905  0.00  0.00    -0.465 OA
ATOM     17  C   UNL     1       5.593  26.279  12.417  0.00  0.00    +0.253 C 
ENDBRANCH   9  16
BRANCH  10  18
ATOM     18  O   UNL     1       7.638  27.464  14.672  0.00  0.00    -0.468 OA
ATOM     19  C   UNL     1       9.027  27.778  14.522  0.00  0.00    +0.253 C 
ENDBRANCH  10  18
ENDBRANCH   1  12
BRANCH   4  20
ATOM     20  C   UNL     1       8.528  22.527  21.202  0.00  0.00    +0.001 A 
ATOM     21  C   UNL     1       9.724  23.102  21.766  0.00  0.00    -0.000 A 
ATOM     22  C   UNL     1      10.643  22.357  22.460  0.00  0.00    -0.004 A 
ATOM     23  C   UNL     1      10.465  20.971  22.607  0.00  0.00    -0.022 A 
ATOM     24  C   UNL     1       9.285  20.417  22.066  0.00  0.00    -0.004 A 
ATOM     25  C   UNL     1       8.386  21.133  21.360  0.00  0.00    -0.000 A 
BRANCH  23  26
ATOM     26  C   UNL     1      11.466  20.256  23.442  0.00  0.00    +0.025 C 
ATOM     27  C   UNL     1      10.944  19.051  24.167  0.00  0.00    +0.022 C 
ATOM     28  C   UNL     1      12.155  18.381  24.811  0.00  0.00    +0.072 C 
ATOM     29  N   UNL     1      12.716  19.220  25.910  0.00  0.00    -0.271 NA
ATOM     30  C   UNL     1      11.762  19.333  27.042  0.00  0.00    +0.090 C 
ATOM     31  C   UNL     1      13.159  20.540  25.398  0.00  0.00    +0.072 C 
ATOM     32  C   UNL     1      12.185  21.211  24.408  0.00  0.00    +0.022 C 
ENDBRANCH  23  26
ENDBRANCH   4  20
TORSDOF 6
ENDMDL
MODEL 5
REMARK VINA RESULT:      -7.4      7.175     11.948
REMARK  Name = 5S88_LU8.pdb
REMARK  6 active torsions:
REMARK  status: ('A' for Active; 'I' for Inactive)
REMARK    1  A    between atoms: _2  and  _3
REMARK    2  A    between atoms: _5  and  _6
REMARK    3  A    between atoms: _10  and  _11
REMARK    4  A    between atoms: _14  and  _15
REMARK    5  A    between atoms: _27  and  _28
REMARK    6  A    between atoms: _30  and  _31
REMARK                            x       y       z     vdW  Elec       q    Type
REMARK                         _______ _______ _______ _____ _____    ______ ____
ROOT
ATOM      1  C   UNL     1      10.051  23.203  18.311  0.00  0.00    +0.015 A 
ATOM      2  C   UNL     1       9.922  22.362  19.406  0.00  0.00    -0.019 A 
ATOM      3  C   UNL     1       8.563  21.851  19.780  0.00  0.00    +0.031 C 
ATOM      4  C   UNL     1      11.054  21.936  20.161  0.00  0.00    +0.015 A 
ATOM      5  C   UNL     1      12.252  22.376  19.670  0.00  0.00    +0.099 A 
ATOM      6  N   UNL     1      12.389  23.146  18.631  0.00  0.00    -0.242 NA
ATOM      7  C   UNL     1      11.326  23.578  17.942  0.00  0.00    +0.099 A 
ENDROOT
BRANCH   1  12
ATOM      8  C   UNL     1       7.175  25.234  16.913  0.00  0.00    +0.175 A 
ATOM      9  C   UNL     1       6.753  24.427  15.877  0.00  0.00    +0.206 A 
ATOM     10  C   UNL     1       7.356  23.204  15.681  0.00  0.00    +0.175 A 
ATOM     11  C   UNL     1       8.404  22.818  16.491  0.00  0.00    +0.040 A 
ATOM     12  C   UNL     1       8.866  23.643  17.527  0.00  0.00    +0.007 A 
ATOM     13  C   UNL     1       8.211  24.854  17.748  0.00  0.00    +0.040 A 
BRANCH   8  15
ATOM     14  C   UNL     1       7.253  27.610  17.094  0.00  0.00    +0.253 C 
ATOM     15  O   UNL     1       6.475  26.390  17.057  0.00  0.00    -0.468 OA
ENDBRANCH   8  15
BRANCH   9  16
ATOM     16  O   UNL     1       5.745  24.832  15.035  0.00  0.00    -0.465 OA
ATOM     17  C   UNL     1       6.089  25.569  13.911  0.00  0.00    +0.253 C 
ENDBRANCH   9  16
BRANCH  10  18
ATOM     18  O   UNL     1       6.874  22.446  14.627  0.00  0.00    -0.468 OA
ATOM     19  C   UNL     1       6.015  21.322  14.851  0.00  0.00    +0.253 C 
ENDBRANCH  10  18
ENDBRANCH   1  12
BRANCH   4  20
ATOM     20  C   UNL     1      11.005  21.060  21.341  0.00  0.00    +0.001 A 
ATOM     21  C   UNL     1      11.473  21.530  22.621  0.00  0.00    -0.000 A 
ATOM     22  C   UNL     1      11.461  20.742  23.744  0.00  0.00    -0.004 A 
ATOM     23  C   UNL     1      11.025  19.408  23.668  0.00  0.00    -0.022 A 
ATOM     24  C   UNL     1      10.554  18.960  22.415  0.00  0.00    -0.004 A 
ATOM     25  C   UNL     1      10.584  19.716  21.299  0.00  0.00    -0.000 A 
BRANCH  23  26
ATOM     26  C   UNL     1      10.969  18.653  24.946  0.00  0.00    +0.025 C 
ATOM     27  C   UNL     1      12.158  17.781  25.223  0.00  0.00    +0.022 C 
ATOM     28  C   UNL     1      11.976  17.244  26.639  0.00  0.00    +0.072 C 
ATOM     29  N   UNL     1      10.833  16.288  26.712  0.00  0.00    -0.271 NA
ATOM     30  C   UNL     1      11.108  15.058  25.926  0.00  0.00    +0.090 C 
ATOM     31  C   UNL     1       9.563  16.947  26.320  0.00  0.00    +0.072 C 
ATOM     32  C   UNL     1       9.661  17.856  25.078  0.00  0.00    +0.022 C 
ENDBRANCH  23  26
ENDBRANCH   4  20
TORSDOF 6
ENDMDL
MODEL 6
REMARK VINA RESULT:      -7.4      8.068     10.696
REMARK  Name = 5S88_LU8.pdb
REMARK  6 active torsions:
REMARK  status: ('A' for Active; 'I' for Inactive)
REMARK    1  A    between atoms: _2  and  _3
REMARK    2  A    between atoms: _5  and  _6
REMARK    3  A    between atoms: _10  and  _11
REMARK    4  A    between atoms: _14  and  _15
REMARK    5  A    between atoms: _27  and  _28
REMARK    6  A    between atoms: _30  and  _31
REMARK                            x       y       z     vdW  Elec       q    Type
REMARK                         _______ _______ _______ _____ _____    ______ ____
ROOT
ATOM      1  C   UNL     1       9.881  23.178  21.149  0.00  0.00    +0.015 A 
ATOM      2  C   UNL     1       9.353  22.851  19.909  0.00  0.00    -0.019 A 
ATOM      3  C   UNL     1      10.284  22.619  18.757  0.00  0.00    +0.031 C 
ATOM      4  C   UNL     1       7.951  22.688  19.711  0.00  0.00    +0.015 A 
ATOM      5  C   UNL     1       7.206  22.819  20.850  0.00  0.00    +0.099 A 
ATOM      6  N   UNL     1       7.690  23.103  22.024  0.00  0.00    -0.242 NA
ATOM      7  C   UNL     1       9.002  23.293  22.206  0.00  0.00    +0.099 A 
ENDROOT
BRANCH   1  12
ATOM      8  C   UNL     1      13.498  24.243  20.774  0.00  0.00    +0.175 A 
ATOM      9  C   UNL     1      14.052  23.726  21.927  0.00  0.00    +0.206 A 
ATOM     10  C   UNL     1      13.270  22.980  22.780  0.00  0.00    +0.175 A 
ATOM     11  C   UNL     1      11.932  22.797  22.501  0.00  0.00    +0.040 A 
ATOM     12  C   UNL     1      11.346  23.346  21.350  0.00  0.00    +0.007 A 
ATOM     13  C   UNL     1      12.161  24.051  20.467  0.00  0.00    +0.040 A 
BRANCH   8  15
ATOM     14  C   UNL     1      13.784  25.687  18.899  0.00  0.00    +0.253 C 
ATOM     15  O   UNL     1      14.367  24.910  19.971  0.00  0.00    -0.468 OA
ENDBRANCH   8  15
BRANCH   9  16
ATOM     16  O   UNL     1      15.372  23.952  22.235  0.00  0.00    -0.465 OA
ATOM     17  C   UNL     1      16.311  23.021  21.815  0.00  0.00    +0.253 C 
ENDBRANCH   9  16
BRANCH  10  18
ATOM     18  O   UNL     1      13.897  22.487  23.911  0.00  0.00    -0.468 OA
ATOM     19  C   UNL     1      13.617  23.021  25.210  0.00  0.00    +0.253 C 
ENDBRANCH  10  18
ENDBRANCH   1  12
BRANCH   4  20
ATOM     20  C   UNL     1       7.309  22.358  18.431  0.00  0.00    +0.001 A 
ATOM     21  C   UNL     1       6.984  23.396  17.485  0.00  0.00    -0.000 A 
ATOM     22  C   UNL     1       6.370  23.135  16.286  0.00  0.00    -0.004 A 
ATOM     23  C   UNL     1       5.990  21.823  15.957  0.00  0.00    -0.022 A 
ATOM     24  C   UNL     1       6.325  20.810  16.880  0.00  0.00    -0.004 A 
ATOM     25  C   UNL     1       6.905  21.056  18.073  0.00  0.00    -0.000 A 
BRANCH  23  26
ATOM     26  C   UNL     1       5.405  21.620  14.606  0.00  0.00    +0.025 C 
ATOM     27  C   UNL     1       6.265  20.846  13.651  0.00  0.00    +0.022 C 
ATOM     28  C   UNL     1       5.415  20.607  12.406  0.00  0.00    +0.072 C 
ATOM     29  N   UNL     1       5.161  21.881  11.674  0.00  0.00    -0.271 NA
ATOM     30  C   UNL     1       6.416  22.441  11.113  0.00  0.00    +0.090 C 
ATOM     31  C   UNL     1       4.433  22.850  12.529  0.00  0.00    +0.072 C 
ATOM     32  C   UNL     1       4.946  22.947  13.980  0.00  0.00    +0.022 C 
ENDBRANCH  23  26
ENDBRANCH   4  20
TORSDOF 6
ENDMDL
MODEL 7
REMARK VINA RESULT:      -7.2     10.186     14.301
REMARK  Name = 5S88_LU8.pdb
REMARK  6 active torsions:
REMARK  status: ('A' for Active; 'I' for Inactive)
REMARK    1  A    between atoms: _2  and  _3
REMARK    2  A    between atoms: _5  and  _6
REMARK    3  A    between atoms: _10  and  _11
REMARK    4  A    between atoms: _14  and  _15
REMARK    5  A    between atoms: _27  and  _28
REMARK    6  A    between atoms: _30  and  _31
REMARK                            x       y       z     vdW  Elec       q    Type
REMARK                         _______ _______ _______ _____ _____    ______ ____
ROOT
ATOM      1  C   UNL     1       9.056  26.008  16.942  0.00  0.00    +0.015 A 
ATOM      2  C   UNL     1       8.599  24.988  16.121  0.00  0.00    -0.019 A 
ATOM      3  C   UNL     1       9.571  23.963  15.617  0.00  0.00    +0.031 C 
ATOM      4  C   UNL     1       7.221  24.863  15.778  0.00  0.00    +0.015 A 
ATOM      5  C   UNL     1       6.409  25.786  16.376  0.00  0.00    +0.099 A 
ATOM      6  N   UNL     1       6.821  26.734  17.166  0.00  0.00    -0.242 NA
ATOM      7  C   UNL     1       8.119  26.876  17.461  0.00  0.00    +0.099 A 
ENDROOT
BRANCH   1  12
ATOM      8  C   UNL     1      12.462  25.498  18.521  0.00  0.00    +0.175 A 
ATOM      9  C   UNL     1      13.242  26.343  17.758  0.00  0.00    +0.206 A 
ATOM     10  C   UNL     1      12.650  27.119  16.786  0.00  0.00    +0.175 A 
ATOM     11  C   UNL     1      11.296  27.012  16.553  0.00  0.00    +0.040 A 
ATOM     12  C   UNL     1      10.495  26.133  17.297  0.00  0.00    +0.007 A 
ATOM     13  C   UNL     1      11.097  25.394  18.315  0.00  0.00    +0.040 A 
BRANCH   8  15
ATOM     14  C   UNL     1      12.484  23.639  20.012  0.00  0.00    +0.253 C 
ATOM     15  O   UNL     1      13.132  24.824  19.491  0.00  0.00    -0.468 OA
ENDBRANCH   8  15
BRANCH   9  16
ATOM     16  O   UNL     1      14.601  26.412  17.952  0.00  0.00    -0.465 OA
ATOM     17  C   UNL     1      15.098  27.448  18.729  0.00  0.00    +0.253 C 
ENDBRANCH   9  16
BRANCH  10  18
ATOM     18  O   UNL     1      13.495  27.947  16.067  0.00  0.00    -0.468 OA
ATOM     19  C   UNL     1      13.607  27.841  14.643  0.00  0.00    +0.253 C 
ENDBRANCH  10  18
ENDBRANCH   1  12
BRANCH   4  20
ATOM     20  C   UNL     1       6.656  23.824  14.905  0.00  0.00    +0.001 A 
ATOM     21  C   UNL     1       6.672  23.983  13.472  0.00  0.00    -0.000 A 
ATOM     22  C   UNL     1       6.142  23.046  12.621  0.00  0.00    -0.004 A 
ATOM     23  C   UNL     1       5.512  21.900  13.134  0.00  0.00    -0.022 A 
ATOM     24  C   UNL     1       5.513  21.744  14.537  0.00  0.00    -0.004 A 
ATOM     25  C   UNL     1       6.008  22.668  15.385  0.00  0.00    -0.000 A 
BRANCH  23  26
ATOM     26  C   UNL     1       5.038  20.901  12.141  0.00  0.00    +0.025 C 
ATOM     27  C   UNL     1       6.038  19.843  11.777  0.00  0.00    +0.022 C 
ATOM     28  C   UNL     1       5.298  18.841  10.895  0.00  0.00    +0.072 C 
ATOM     29  N   UNL     1       4.946  19.440   9.575  0.00  0.00    -0.271 NA
ATOM     30  C   UNL     1       6.161  19.745   8.779  0.00  0.00    +0.090 C 
ATOM     31  C   UNL     1       4.061  20.618   9.746  0.00  0.00    +0.072 C 
ATOM     32  C   UNL     1       4.469  21.577  10.883  0.00  0.00    +0.022 C 
ENDBRANCH  23  26
ENDBRANCH   4  20
TORSDOF 6
ENDMDL
MODEL 8
REMARK VINA RESULT:      -7.2      8.442     10.065
REMARK  Name = 5S88_LU8.pdb
REMARK  6 active torsions:
REMARK  status: ('A' for Active; 'I' for Inactive)
REMARK    1  A    between atoms: _2  and  _3
REMARK    2  A    between atoms: _5  and  _6
REMARK    3  A    between atoms: _10  and  _11
REMARK    4  A    between atoms: _14  and  _15
REMARK    5  A    between atoms: _27  and  _28
REMARK    6  A    between atoms: _30  and  _31
REMARK                            x       y       z     vdW  Elec       q    Type
REMARK                         _______ _______ _______ _____ _____    ______ ____
ROOT
ATOM      1  C   UNL     1       8.435  18.520  20.615  0.00  0.00    +0.015 A 
ATOM      2  C   UNL     1       7.951  19.350  19.616  0.00  0.00    -0.019 A 
ATOM      3  C   UNL     1       8.368  20.790  19.595  0.00  0.00    +0.031 C 
ATOM      4  C   UNL     1       7.100  18.860  18.581  0.00  0.00    +0.015 A 
ATOM      5  C   UNL     1       6.870  17.513  18.637  0.00  0.00    +0.099 A 
ATOM      6  N   UNL     1       7.336  16.719  19.556  0.00  0.00    -0.242 NA
ATOM      7  C   UNL     1       8.105  17.182  20.549  0.00  0.00    +0.099 A 
ENDROOT
BRANCH   1  12
ATOM      8  C   UNL     1      10.203  19.036  23.927  0.00  0.00    +0.175 A 
ATOM      9  C   UNL     1      11.154  19.974  23.581  0.00  0.00    +0.206 A 
ATOM     10  C   UNL     1      11.173  20.480  22.301  0.00  0.00    +0.175 A 
ATOM     11  C   UNL     1      10.274  20.015  21.365  0.00  0.00    +0.040 A 
ATOM     12  C   UNL     1       9.323  19.036  21.692  0.00  0.00    +0.007 A 
ATOM     13  C   UNL     1       9.279  18.572  23.005  0.00  0.00    +0.040 A 
BRANCH   8  15
ATOM     14  C   UNL     1      10.555  17.257  25.474  0.00  0.00    +0.253 C 
ATOM     15  O   UNL     1      10.231  18.646  25.227  0.00  0.00    -0.468 OA
ENDBRANCH   8  15
BRANCH   9  16
ATOM     16  O   UNL     1      12.086  20.400  24.497  0.00  0.00    -0.465 OA
ATOM     17  C   UNL     1      11.826  21.569  25.198  0.00  0.00    +0.253 C 
ENDBRANCH   9  16
BRANCH  10  18
ATOM     18  O   UNL     1      12.150  21.423  22.031  0.00  0.00    -0.468 OA
ATOM     19  C   UNL     1      12.500  21.768  20.686  0.00  0.00    +0.253 C 
ENDBRANCH  10  18
ENDBRANCH   1  12
BRANCH   4  20
ATOM     20  C   UNL     1       6.533  19.671  17.495  0.00  0.00    +0.001 A 
ATOM     21  C   UNL     1       6.909  19.425  16.125  0.00  0.00    -0.000 A 
ATOM     22  C   UNL     1       6.416  20.168  15.082  0.00  0.00    -0.004 A 
ATOM     23  C   UNL     1       5.547  21.244  15.327  0.00  0.00    -0.022 A 
ATOM     24  C   UNL     1       5.171  21.469  16.669  0.00  0.00    -0.004 A 
ATOM     25  C   UNL     1       5.667  20.763  17.706  0.00  0.00    -0.000 A 
BRANCH  23  26
ATOM     26  C   UNL     1       4.999  21.942  14.135  0.00  0.00    +0.025 C 
ATOM     27  C   UNL     1       5.423  21.372  12.814  0.00  0.00    +0.022 C 
ATOM     28  C   UNL     1       4.621  22.116  11.750  0.00  0.00    +0.072 C 
ATOM     29  N   UNL     1       5.046  23.543  11.653  0.00  0.00    -0.271 NA
ATOM     30  C   UNL     1       6.440  23.658  11.156  0.00  0.00    +0.090 C 
ATOM     31  C   UNL     1       4.835  24.248  12.941  0.00  0.00    +0.072 C 
ATOM     32  C   UNL     1       5.264  23.455  14.192  0.00  0.00    +0.022 C 
ENDBRANCH  23  26
ENDBRANCH   4  20
TORSDOF 6
ENDMDL
MODEL 9
REMARK VINA RESULT:      -7.2      1.548      3.168
REMARK  Name = 5S88_LU8.pdb
REMARK  6 active torsions:
REMARK  status: ('A' for Active; 'I' for Inactive)
REMARK    1  A    between atoms: _2  and  _3
REMARK    2  A    between atoms: _5  and  _6
REMARK    3  A    between atoms: _10  and  _11
REMARK    4  A    between atoms: _14  and  _15
REMARK    5  A    between atoms: _27  and  _28
REMARK    6  A    between atoms: _30  and  _31
REMARK                            x       y       z     vdW  Elec       q    Type
REMARK                         _______ _______ _______ _____ _____    ______ ____
ROOT
ATOM      1  C   UNL     1      11.259  19.644  26.387  0.00  0.00    +0.015 A 
ATOM      2  C   UNL     1      11.568  20.216  25.163  0.00  0.00    -0.019 A 
ATOM      3  C   UNL     1      11.444  19.390  23.917  0.00  0.00    +0.031 C 
ATOM      4  C   UNL     1      11.960  21.582  25.053  0.00  0.00    +0.015 A 
ATOM      5  C   UNL     1      11.938  22.269  26.235  0.00  0.00    +0.099 A 
ATOM      6  N   UNL     1      11.629  21.750  27.388  0.00  0.00    -0.242 NA
ATOM      7  C   UNL     1      11.295  20.458  27.500  0.00  0.00    +0.099 A 
ENDROOT
BRANCH   1  12
ATOM      8  C   UNL     1      10.971  16.022  27.464  0.00  0.00    +0.175 A 
ATOM      9  C   UNL     1       9.880  15.608  26.727  0.00  0.00    +0.206 A 
ATOM     10  C   UNL     1       9.290  16.481  25.841  0.00  0.00    +0.175 A 
ATOM     11  C   UNL     1       9.763  17.771  25.730  0.00  0.00    +0.040 A 
ATOM     12  C   UNL     1      10.849  18.217  26.497  0.00  0.00    +0.007 A 
ATOM     13  C   UNL     1      11.472  17.308  27.350  0.00  0.00    +0.040 A 
BRANCH   8  15
ATOM     14  C   UNL     1      12.612  15.490  29.108  0.00  0.00    +0.253 C 
ATOM     15  O   UNL     1      11.516  15.068  28.262  0.00  0.00    -0.468 OA
ENDBRANCH   8  15
BRANCH   9  16
ATOM     16  O   UNL     1       9.373  14.339  26.875  0.00  0.00    -0.465 OA
ATOM     17  C   UNL     1       8.359  14.145  27.801  0.00  0.00    +0.253 C 
ENDBRANCH   9  16
BRANCH  10  18
ATOM     18  O   UNL     1       8.206  15.992  25.131  0.00  0.00    -0.468 OA
ATOM     19  C   UNL     1       7.776  16.606  23.912  0.00  0.00    +0.253 C 
ENDBRANCH  10  18
ENDBRANCH   1  12
BRANCH   4  20
ATOM     20  C   UNL     1      12.318  22.263  23.800  0.00  0.00    +0.001 A 
ATOM     21  C   UNL     1      13.699  22.402  23.411  0.00  0.00    -0.000 A 
ATOM     22  C   UNL     1      14.080  23.043  22.259  0.00  0.00    -0.004 A 
ATOM     23  C   UNL     1      13.115  23.637  21.428  0.00  0.00    -0.022 A 
ATOM     24  C   UNL     1      11.764  23.483  21.807  0.00  0.00    -0.004 A 
ATOM     25  C   UNL     1      11.378  22.878  22.949  0.00  0.00    -0.000 A 
BRANCH  23  26
ATOM     26  C   UNL     1      13.607  24.239  20.162  0.00  0.00    +0.025 C 
ATOM     27  C   UNL     1      13.398  23.400  18.936  0.00  0.00    +0.022 C 
ATOM     28  C   UNL     1      13.810  24.266  17.749  0.00  0.00    +0.072 C 
ATOM     29  N   UNL     1      15.281  24.511  17.743  0.00  0.00    -0.271 NA
ATOM     30  C   UNL     1      16.036  23.254  17.511  0.00  0.00    +0.090 C 
ATOM     31  C   UNL     1      15.707  25.217  18.976  0.00  0.00    +0.072 C 
ATOM     32  C   UNL     1      15.073  24.687  20.279  0.00  0.00    +0.022 C 
ENDBRANCH  23  26
ENDBRANCH   4  20
TORSDOF 6
ENDMDL
