MODEL 1
REMARK VINA RESULT:      -9.0      0.000      0.000
REMARK  Name = 5OY6_B4E.pdb
REMARK  0 active torsions:
REMARK  status: ('A' for Active; 'I' for Inactive)
REMARK                            x       y       z     vdW  Elec       q    Type
REMARK                         _______ _______ _______ _____ _____    ______ ____
ROOT
ATOM      1 CL   UNL     1       5.724  25.374  21.209  0.00  0.00    -0.082 Cl
ATOM      2  C   UNL     1       6.003  24.899  19.547  0.00  0.00    +0.061 A 
ATOM      3  C   UNL     1       6.095  25.898  18.592  0.00  0.00    +0.012 A 
ATOM      4  C   UNL     1       6.308  25.574  17.258  0.00  0.00    +0.008 A 
ATOM      5  C   UNL     1       6.403  26.598  16.313  0.00  0.00    +0.057 A 
ATOM      6  C   UNL     1       6.022  26.535  14.947  0.00  0.00    +0.167 A 
ATOM      7  N   UNL     1       5.480  25.495  14.220  0.00  0.00    -0.210 NA
ATOM      8  C   UNL     1       5.200  25.683  12.918  0.00  0.00    +0.151 A 
ATOM      9  N   UNL     1       4.637  24.616  12.159  0.00  0.00    -0.218 NA
ATOM     10  C   UNL     1       4.092  23.482  12.830  0.00  0.00    +0.146 C 
ATOM     11  C   UNL     1       5.232  22.590  13.257  0.00  0.00    +0.166 C 
ATOM     12  O   UNL     1       4.898  22.104  14.556  0.00  0.00    -0.348 OA
ATOM     13  C   UNL     1       5.924  21.336  15.187  0.00  0.00    +0.189 C 
ATOM     14  C   UNL     1       5.511  21.280  16.636  0.00  0.00    +0.237 C 
ATOM     15  O   UNL     1       6.512  21.865  17.445  0.00  0.00    -0.473 OA
ATOM     16  C   UNL     1       6.346  23.224  17.832  0.00  0.00    +0.140 A 
ATOM     17  C   UNL     1       5.456  26.924  12.314  0.00  0.00    +0.057 A 
ATOM     18  C   UNL     1       6.007  27.951  13.070  0.00  0.00    +0.105 A 
ATOM     19  N   UNL     1       6.269  27.713  14.395  0.00  0.00    -0.211 N 
ATOM     20  N   UNL     1       6.825  28.559  15.337  0.00  0.00    -0.162 NA
ATOM     21  C   UNL     1       6.908  27.883  16.505  0.00  0.00    +0.124 A 
ATOM     22  C   UNL     1       6.439  24.231  16.878  0.00  0.00    +0.037 A 
ATOM     23  C   UNL     1       6.130  23.562  19.172  0.00  0.00    +0.048 A 
ENDROOT
TORSDOF 0
ENDMDL
MODEL 2
REMARK VINA RESULT:      -8.3      2.793      4.930
REMARK  Name = 5OY6_B4E.pdb
REMARK  0 active torsions:
REMARK  status: ('A' for Active; 'I' for Inactive)
REMARK                            x       y       z     vdW  Elec       q    Type
REMARK                         _______ _______ _______ _____ _____    ______ ____
ROOT
ATOM      1 CL   UNL     1       6.859  20.228  11.046  0.00  0.00    -0.082 Cl
ATOM      2  C   UNL     1       6.367  21.158  12.446  0.00  0.00    +0.061 A 
ATOM      3  C   UNL     1       6.234  22.529  12.303  0.00  0.00    +0.012 A 
ATOM      4  C   UNL     1       5.853  23.312  13.385  0.00  0.00    +0.008 A 
ATOM      5  C   UNL     1       5.722  24.692  13.216  0.00  0.00    +0.057 A 
ATOM      6  C   UNL     1       5.943  25.695  14.195  0.00  0.00    +0.167 A 
ATOM      7  N   UNL     1       6.331  25.583  15.514  0.00  0.00    -0.210 NA
ATOM      8  C   UNL     1       6.477  26.699  16.251  0.00  0.00    +0.151 A 
ATOM      9  N   UNL     1       6.881  26.593  17.614  0.00  0.00    -0.218 NA
ATOM     10  C   UNL     1       7.422  25.366  18.098  0.00  0.00    +0.146 C 
ATOM     11  C   UNL     1       6.280  24.412  18.353  0.00  0.00    +0.166 C 
ATOM     12  O   UNL     1       6.724  23.128  17.917  0.00  0.00    -0.348 OA
ATOM     13  C   UNL     1       5.727  22.107  17.959  0.00  0.00    +0.189 C 
ATOM     14  C   UNL     1       6.294  20.995  17.114  0.00  0.00    +0.237 C 
ATOM     15  O   UNL     1       5.429  20.729  16.026  0.00  0.00    -0.473 OA
ATOM     16  C   UNL     1       5.726  21.336  14.774  0.00  0.00    +0.140 A 
ATOM     17  C   UNL     1       6.236  27.958  15.679  0.00  0.00    +0.057 A 
ATOM     18  C   UNL     1       5.842  28.040  14.349  0.00  0.00    +0.105 A 
ATOM     19  N   UNL     1       5.713  26.875  13.638  0.00  0.00    -0.211 N 
ATOM     20  N   UNL     1       5.322  26.697  12.323  0.00  0.00    -0.162 NA
ATOM     21  C   UNL     1       5.326  25.370  12.064  0.00  0.00    +0.124 A 
ATOM     22  C   UNL     1       5.593  22.711  14.624  0.00  0.00    +0.037 A 
ATOM     23  C   UNL     1       6.112  20.557  13.679  0.00  0.00    +0.048 A 
ENDROOT
TORSDOF 0
ENDMDL
MODEL 3
REMARK VINA RESULT:      -7.9      3.309      6.280
REMARK  Name = 5OY6_B4E.pdb
REMARK  0 active torsions:
REMARK  status: ('A' for Active; 'I' for Inactive)
REMARK                            x       y       z     vdW  Elec       q    Type
REMARK                         _______ _______ _______ _____ _____    ______ ____
ROOT
ATOM      1 CL   UNL     1       4.605  28.471  10.842  0.00  0.00    -0.082 Cl
ATOM      2  C   UNL     1       5.454  27.643  12.131  0.00  0.00    +0.061 A 
ATOM      3  C   UNL     1       5.384  26.261  12.173  0.00  0.00    +0.012 A 
ATOM      4  C   UNL     1       6.034  25.557  13.179  0.00  0.00    +0.008 A 
ATOM      5  C   UNL     1       5.952  24.162  13.198  0.00  0.00    +0.057 A 
ATOM      6  C   UNL     1       5.982  23.323  14.342  0.00  0.00    +0.167 A 
ATOM      7  N   UNL     1       6.091  23.643  15.679  0.00  0.00    -0.210 NA
ATOM      8  C   UNL     1       6.095  22.654  16.591  0.00  0.00    +0.151 A 
ATOM      9  N   UNL     1       6.204  22.975  17.976  0.00  0.00    -0.218 NA
ATOM     10  C   UNL     1       5.998  24.318  18.409  0.00  0.00    +0.146 C 
ATOM     11  C   UNL     1       7.250  25.108  18.117  0.00  0.00    +0.166 C 
ATOM     12  O   UNL     1       6.819  26.387  17.653  0.00  0.00    -0.348 OA
ATOM     13  C   UNL     1       7.870  27.241  17.201  0.00  0.00    +0.189 C 
ATOM     14  C   UNL     1       7.164  28.323  16.424  0.00  0.00    +0.237 C 
ATOM     15  O   UNL     1       7.619  28.328  15.085  0.00  0.00    -0.473 OA
ATOM     16  C   UNL     1       6.843  27.635  14.114  0.00  0.00    +0.140 A 
ATOM     17  C   UNL     1       5.988  21.316  16.180  0.00  0.00    +0.057 A 
ATOM     18  C   UNL     1       5.884  21.024  14.825  0.00  0.00    +0.105 A 
ATOM     19  N   UNL     1       5.878  22.067  13.935  0.00  0.00    -0.211 N 
ATOM     20  N   UNL     1       5.804  22.032  12.555  0.00  0.00    -0.162 NA
ATOM     21  C   UNL     1       5.849  23.305  12.103  0.00  0.00    +0.124 A 
ATOM     22  C   UNL     1       6.770  26.248  14.150  0.00  0.00    +0.037 A 
ATOM     23  C   UNL     1       6.184  28.334  13.098  0.00  0.00    +0.048 A 
ENDROOT
TORSDOF 0
ENDMDL
MODEL 4
REMARK VINA RESULT:      -7.9      3.066      5.194
REMARK  Name = 5OY6_B4E.pdb
REMARK  0 active torsions:
REMARK  status: ('A' for Active; 'I' for Inactive)
REMARK                            x       y       z     vdW  Elec       q    Type
REMARK                         _______ _______ _______ _____ _____    ______ ____
ROOT
ATOM      1 CL   UNL     1       5.200  25.813   9.203  0.00  0.00    -0.082 Cl
ATOM      2  C   UNL     1       5.215  25.332  10.886  0.00  0.00    +0.061 A 
ATOM      3  C   UNL     1       5.567  26.281  11.831  0.00  0.00    +0.012 A 
ATOM      4  C   UNL     1       5.601  25.948  13.179  0.00  0.00    +0.008 A 
ATOM      5  C   UNL     1       5.956  26.923  14.115  0.00  0.00    +0.057 A 
ATOM      6  C   UNL     1       6.617  26.715  15.353  0.00  0.00    +0.167 A 
ATOM      7  N   UNL     1       7.070  25.550  15.937  0.00  0.00    -0.210 NA
ATOM      8  C   UNL     1       7.678  25.612  17.135  0.00  0.00    +0.151 A 
ATOM      9  N   UNL     1       8.152  24.414  17.746  0.00  0.00    -0.218 NA
ATOM     10  C   UNL     1       8.264  23.222  16.970  0.00  0.00    +0.146 C 
ATOM     11  C   UNL     1       6.888  22.617  16.829  0.00  0.00    +0.166 C 
ATOM     12  O   UNL     1       6.799  22.133  15.490  0.00  0.00    -0.348 OA
ATOM     13  C   UNL     1       5.512  21.634  15.122  0.00  0.00    +0.189 C 
ATOM     14  C   UNL     1       5.556  21.558  13.617  0.00  0.00    +0.237 C 
ATOM     15  O   UNL     1       4.549  22.383  13.064  0.00  0.00    -0.473 OA
ATOM     16  C   UNL     1       4.917  23.691  12.641  0.00  0.00    +0.140 A 
ATOM     17  C   UNL     1       7.847  26.849  17.777  0.00  0.00    +0.057 A 
ATOM     18  C   UNL     1       7.376  28.005  17.166  0.00  0.00    +0.105 A 
ATOM     19  N   UNL     1       6.770  27.891  15.942  0.00  0.00    -0.211 N 
ATOM     20  N   UNL     1       6.211  28.880  15.153  0.00  0.00    -0.162 NA
ATOM     21  C   UNL     1       5.714  28.294  14.041  0.00  0.00    +0.124 A 
ATOM     22  C   UNL     1       5.270  24.649  13.585  0.00  0.00    +0.037 A 
ATOM     23  C   UNL     1       4.887  24.037  11.287  0.00  0.00    +0.048 A 
ENDROOT
TORSDOF 0
ENDMDL
MODEL 5
REMARK VINA RESULT:      -7.6      9.775     10.916
REMARK  Name = 5OY6_B4E.pdb
REMARK  0 active torsions:
REMARK  status: ('A' for Active; 'I' for Inactive)
REMARK                            x       y       z     vdW  Elec       q    Type
REMARK                         _______ _______ _______ _____ _____    ______ ____
ROOT
ATOM      1 CL   UNL     1      14.748  22.938  25.569  0.00  0.00    -0.082 Cl
ATOM      2  C   UNL     1      14.607  22.830  23.827  0.00  0.00    +0.061 A 
ATOM      3  C   UNL     1      15.751  23.012  23.069  0.00  0.00    +0.012 A 
ATOM      4  C   UNL     1      15.692  22.944  21.683  0.00  0.00    +0.008 A 
ATOM      5  C   UNL     1      16.860  23.127  20.940  0.00  0.00    +0.057 A 
ATOM      6  C   UNL     1      16.963  23.681  19.638  0.00  0.00    +0.167 A 
ATOM      7  N   UNL     1      15.984  24.168  18.797  0.00  0.00    -0.210 NA
ATOM      8  C   UNL     1      16.337  24.651  17.592  0.00  0.00    +0.151 A 
ATOM      9  N   UNL     1      15.333  25.159  16.716  0.00  0.00    -0.218 NA
ATOM     10  C   UNL     1      14.030  25.441  17.223  0.00  0.00    +0.146 C 
ATOM     11  C   UNL     1      13.277  24.139  17.346  0.00  0.00    +0.166 C 
ATOM     12  O   UNL     1      12.535  24.217  18.562  0.00  0.00    -0.348 OA
ATOM     13  C   UNL     1      11.851  23.016  18.921  0.00  0.00    +0.189 C 
ATOM     14  C   UNL     1      11.488  23.210  20.371  0.00  0.00    +0.237 C 
ATOM     15  O   UNL     1      12.087  22.198  21.157  0.00  0.00    -0.473 OA
ATOM     16  C   UNL     1      13.318  22.498  21.805  0.00  0.00    +0.140 A 
ATOM     17  C   UNL     1      17.685  24.658  17.202  0.00  0.00    +0.057 A 
ATOM     18  C   UNL     1      18.649  24.156  18.069  0.00  0.00    +0.105 A 
ATOM     19  N   UNL     1      18.240  23.681  19.289  0.00  0.00    -0.211 N 
ATOM     20  N   UNL     1      18.997  23.123  20.302  0.00  0.00    -0.162 NA
ATOM     21  C   UNL     1      18.160  22.784  21.308  0.00  0.00    +0.124 A 
ATOM     22  C   UNL     1      14.470  22.680  21.050  0.00  0.00    +0.037 A 
ATOM     23  C   UNL     1      13.389  22.570  23.199  0.00  0.00    +0.048 A 
ENDROOT
TORSDOF 0
ENDMDL
MODEL 6
REMARK VINA RESULT:      -7.5      9.469     10.421
REMARK  Name = 5OY6_B4E.pdb
REMARK  0 active torsions:
REMARK  status: ('A' for Active; 'I' for Inactive)
REMARK                            x       y       z     vdW  Elec       q    Type
REMARK                         _______ _______ _______ _____ _____    ______ ____
ROOT
ATOM      1 CL   UNL     1      17.340  20.846  15.352  0.00  0.00    -0.082 Cl
ATOM      2  C   UNL     1      16.361  22.198  14.821  0.00  0.00    +0.061 A 
ATOM      3  C   UNL     1      17.009  23.318  14.330  0.00  0.00    +0.012 A 
ATOM      4  C   UNL     1      16.279  24.420  13.903  0.00  0.00    +0.008 A 
ATOM      5  C   UNL     1      16.955  25.537  13.408  0.00  0.00    +0.057 A 
ATOM      6  C   UNL     1      16.538  26.891  13.491  0.00  0.00    +0.167 A 
ATOM      7  N   UNL     1      15.407  27.442  14.058  0.00  0.00    -0.210 NA
ATOM      8  C   UNL     1      15.233  28.775  14.009  0.00  0.00    +0.151 A 
ATOM      9  N   UNL     1      14.070  29.355  14.595  0.00  0.00    -0.218 NA
ATOM     10  C   UNL     1      13.267  28.582  15.484  0.00  0.00    +0.146 C 
ATOM     11  C   UNL     1      12.404  27.657  14.661  0.00  0.00    +0.166 C 
ATOM     12  O   UNL     1      12.373  26.411  15.356  0.00  0.00    -0.348 OA
ATOM     13  C   UNL     1      11.703  25.358  14.661  0.00  0.00    +0.189 C 
ATOM     14  C   UNL     1      12.133  24.104  15.379  0.00  0.00    +0.237 C 
ATOM     15  O   UNL     1      12.800  23.240  14.480  0.00  0.00    -0.473 OA
ATOM     16  C   UNL     1      14.222  23.272  14.454  0.00  0.00    +0.140 A 
ATOM     17  C   UNL     1      16.195  29.589  13.389  0.00  0.00    +0.057 A 
ATOM     18  C   UNL     1      17.321  29.005  12.822  0.00  0.00    +0.105 A 
ATOM     19  N   UNL     1      17.456  27.643  12.904  0.00  0.00    -0.211 N 
ATOM     20  N   UNL     1      18.465  26.838  12.407  0.00  0.00    -0.162 NA
ATOM     21  C   UNL     1      18.163  25.556  12.713  0.00  0.00    +0.124 A 
ATOM     22  C   UNL     1      14.879  24.394  13.962  0.00  0.00    +0.037 A 
ATOM     23  C   UNL     1      14.968  22.169  14.883  0.00  0.00    +0.048 A 
ENDROOT
TORSDOF 0
ENDMDL
MODEL 7
REMARK VINA RESULT:      -7.5      2.956      5.026
REMARK  Name = 5OY6_B4E.pdb
REMARK  0 active torsions:
REMARK  status: ('A' for Active; 'I' for Inactive)
REMARK                            x       y       z     vdW  Elec       q    Type
REMARK                         _______ _______ _______ _____ _____    ______ ____
ROOT
ATOM      1 CL   UNL     1       6.032  29.227  14.746  0.00  0.00    -0.082 Cl
ATOM      2  C   UNL     1       6.505  27.627  15.275  0.00  0.00    +0.061 A 
ATOM      3  C   UNL     1       6.486  26.602  14.344  0.00  0.00    +0.012 A 
ATOM      4  C   UNL     1       6.845  25.312  14.715  0.00  0.00    +0.008 A 
ATOM      5  C   UNL     1       6.823  24.295  13.758  0.00  0.00    +0.057 A 
ATOM      6  C   UNL     1       6.555  22.920  13.982  0.00  0.00    +0.167 A 
ATOM      7  N   UNL     1       6.256  22.249  15.150  0.00  0.00    -0.210 NA
ATOM      8  C   UNL     1       6.038  20.922  15.106  0.00  0.00    +0.151 A 
ATOM      9  N   UNL     1       5.725  20.220  16.306  0.00  0.00    -0.218 NA
ATOM     10  C   UNL     1       5.343  20.949  17.471  0.00  0.00    +0.146 C 
ATOM     11  C   UNL     1       6.590  21.508  18.111  0.00  0.00    +0.166 C 
ATOM     12  O   UNL     1       6.257  22.821  18.559  0.00  0.00    -0.348 OA
ATOM     13  C   UNL     1       7.356  23.568  19.084  0.00  0.00    +0.189 C 
ATOM     14  C   UNL     1       6.861  24.991  19.115  0.00  0.00    +0.237 C 
ATOM     15  O   UNL     1       7.685  25.806  18.304  0.00  0.00    -0.473 OA
ATOM     16  C   UNL     1       7.255  26.073  16.974  0.00  0.00    +0.140 A 
ATOM     17  C   UNL     1       6.113  20.236  13.883  0.00  0.00    +0.057 A 
ATOM     18  C   UNL     1       6.421  20.938  12.724  0.00  0.00    +0.105 A 
ATOM     19  N   UNL     1       6.628  22.290  12.819  0.00  0.00    -0.211 N 
ATOM     20  N   UNL     1       6.960  23.191  11.825  0.00  0.00    -0.162 NA
ATOM     21  C   UNL     1       7.080  24.412  12.392  0.00  0.00    +0.124 A 
ATOM     22  C   UNL     1       7.236  25.049  16.034  0.00  0.00    +0.037 A 
ATOM     23  C   UNL     1       6.891  27.367  16.590  0.00  0.00    +0.048 A 
ENDROOT
TORSDOF 0
ENDMDL
MODEL 8
REMARK VINA RESULT:      -7.4      3.448      5.321
REMARK  Name = 5OY6_B4E.pdb
REMARK  0 active torsions:
REMARK  status: ('A' for Active; 'I' for Inactive)
REMARK                            x       y       z     vdW  Elec       q    Type
REMARK                         _______ _______ _______ _____ _____    ______ ____
ROOT
ATOM      1 CL   UNL     1      12.051  26.960  17.630  0.00  0.00    -0.082 Cl
ATOM      2  C   UNL     1      10.428  26.469  17.194  0.00  0.00    +0.061 A 
ATOM      3  C   UNL     1       9.981  25.234  17.633  0.00  0.00    +0.012 A 
ATOM      4  C   UNL     1       8.704  24.795  17.308  0.00  0.00    +0.008 A 
ATOM      5  C   UNL     1       8.274  23.547  17.765  0.00  0.00    +0.057 A 
ATOM      6  C   UNL     1       7.360  22.673  17.123  0.00  0.00    +0.167 A 
ATOM      7  N   UNL     1       6.683  22.813  15.929  0.00  0.00    -0.210 NA
ATOM      8  C   UNL     1       5.859  21.829  15.524  0.00  0.00    +0.151 A 
ATOM      9  N   UNL     1       5.158  21.962  14.290  0.00  0.00    -0.218 NA
ATOM     10  C   UNL     1       5.556  22.963  13.355  0.00  0.00    +0.146 C 
ATOM     11  C   UNL     1       5.010  24.291  13.820  0.00  0.00    +0.166 C 
ATOM     12  O   UNL     1       6.032  25.255  13.570  0.00  0.00    -0.348 OA
ATOM     13  C   UNL     1       5.748  26.564  14.064  0.00  0.00    +0.189 C 
ATOM     14  C   UNL     1       7.080  27.270  14.038  0.00  0.00    +0.237 C 
ATOM     15  O   UNL     1       7.431  27.684  15.343  0.00  0.00    -0.473 OA
ATOM     16  C   UNL     1       8.304  26.849  16.095  0.00  0.00    +0.140 A 
ATOM     17  C   UNL     1       5.694  20.679  16.312  0.00  0.00    +0.057 A 
ATOM     18  C   UNL     1       6.385  20.569  17.513  0.00  0.00    +0.105 A 
ATOM     19  N   UNL     1       7.219  21.594  17.878  0.00  0.00    -0.211 N 
ATOM     20  N   UNL     1       7.989  21.724  19.019  0.00  0.00    -0.162 NA
ATOM     21  C   UNL     1       8.632  22.912  18.953  0.00  0.00    +0.124 A 
ATOM     22  C   UNL     1       7.862  25.609  16.540  0.00  0.00    +0.037 A 
ATOM     23  C   UNL     1       9.592  27.281  16.427  0.00  0.00    +0.048 A 
ENDROOT
TORSDOF 0
ENDMDL
MODEL 9
REMARK VINA RESULT:      -7.4      8.768      9.768
REMARK  Name = 5OY6_B4E.pdb
REMARK  0 active torsions:
REMARK  status: ('A' for Active; 'I' for Inactive)
REMARK                            x       y       z     vdW  Elec       q    Type
REMARK                         _______ _______ _______ _____ _____    ______ ____
ROOT
ATOM      1 CL   UNL     1      19.404  22.490  19.948  0.00  0.00    -0.082 Cl
ATOM      2  C   UNL     1      17.679  22.431  19.658  0.00  0.00    +0.061 A 
ATOM      3  C   UNL     1      17.237  22.459  18.346  0.00  0.00    +0.012 A 
ATOM      4  C   UNL     1      15.878  22.422  18.063  0.00  0.00    +0.008 A 
ATOM      5  C   UNL     1      15.457  22.446  16.731  0.00  0.00    +0.057 A 
ATOM      6  C   UNL     1      14.251  23.001  16.229  0.00  0.00    +0.167 A 
ATOM      7  N   UNL     1      13.220  23.637  16.889  0.00  0.00    -0.210 NA
ATOM      8  C   UNL     1      12.167  24.084  16.182  0.00  0.00    +0.151 A 
ATOM      9  N   UNL     1      11.098  24.745  16.854  0.00  0.00    -0.218 NA
ATOM     10  C   UNL     1      11.280  25.203  18.192  0.00  0.00    +0.146 C 
ATOM     11  C   UNL     1      11.146  24.022  19.121  0.00  0.00    +0.166 C 
ATOM     12  O   UNL     1      12.144  24.187  20.128  0.00  0.00    -0.348 OA
ATOM     13  C   UNL     1      12.259  23.091  21.037  0.00  0.00    +0.189 C 
ATOM     14  C   UNL     1      13.583  23.312  21.723  0.00  0.00    +0.237 C 
ATOM     15  O   UNL     1      14.439  22.212  21.485  0.00  0.00    -0.473 OA
ATOM     16  C   UNL     1      15.386  22.321  20.429  0.00  0.00    +0.140 A 
ATOM     17  C   UNL     1      12.124  23.902  14.791  0.00  0.00    +0.057 A 
ATOM     18  C   UNL     1      13.175  23.253  14.154  0.00  0.00    +0.105 A 
ATOM     19  N   UNL     1      14.229  22.822  14.917  0.00  0.00    -0.211 N 
ATOM     20  N   UNL     1      15.368  22.145  14.523  0.00  0.00    -0.162 NA
ATOM     21  C   UNL     1      16.117  21.914  15.625  0.00  0.00    +0.124 A 
ATOM     22  C   UNL     1      14.950  22.347  19.109  0.00  0.00    +0.037 A 
ATOM     23  C   UNL     1      16.757  22.360  20.702  0.00  0.00    +0.048 A 
ENDROOT
TORSDOF 0
ENDMDL
