MODEL 1
REMARK VINA RESULT:      -5.6      0.000      0.000
REMARK  Name = 6GIN_IR2.pdb
REMARK  3 active torsions:
REMARK  status: ('A' for Active; 'I' for Inactive)
REMARK    1  A    between atoms: _6  and  _7
REMARK    2  A    between atoms: _10  and  _13
REMARK    3  A    between atoms: _19  and  _24
REMARK                            x       y       z     vdW  Elec       q    Type
REMARK                         _______ _______ _______ _____ _____    ______ ____
ROOT
ATOM      1  N   UNL     1      27.840  18.912  20.584  0.00  0.00    -0.257 N 
ATOM      2  C   UNL     1      26.762  19.320  19.814  0.00  0.00    +0.267 A 
ATOM      3  O   UNL     1      25.917  20.052  20.310  0.00  0.00    -0.267 OA
ATOM      4  C   UNL     1      26.702  18.825  18.393  0.00  0.00    +0.074 A 
ATOM      5  C   UNL     1      25.631  19.183  17.552  0.00  0.00    +0.006 A 
ATOM      6  C   UNL     1      25.562  18.713  16.232  0.00  0.00    +0.000 A 
ATOM      7  C   UNL     1      26.585  17.892  15.723  0.00  0.00    +0.002 A 
ATOM      8  C   UNL     1      27.652  17.528  16.530  0.00  0.00    +0.019 A 
ATOM      9  C   UNL     1      27.679  18.023  17.872  0.00  0.00    +0.088 A 
ATOM     10  N   UNL     1      28.776  17.624  18.677  0.00  0.00    -0.225 NA
ATOM     11  C   UNL     1      28.836  18.096  20.018  0.00  0.00    +0.185 A 
ENDROOT
BRANCH   6  12
ATOM     12  C   UNL     1      24.503  19.087  15.390  0.00  0.00    +0.003 A 
ATOM     13  C   UNL     1      23.280  18.302  15.272  0.00  0.00    +0.018 A 
ATOM     14  C   UNL     1      23.043  17.080  15.989  0.00  0.00    +0.001 A 
ATOM     15  C   UNL     1      21.872  16.307  15.856  0.00  0.00    +0.000 A 
ATOM     16  C   UNL     1      20.890  16.778  14.983  0.00  0.00    +0.002 A 
ATOM     17  C   UNL     1      21.081  17.984  14.303  0.00  0.00    +0.019 A 
ATOM     18  C   UNL     1      22.292  18.746  14.441  0.00  0.00    +0.081 A 
ATOM     19  N   UNL     1      22.464  19.939  13.737  0.00  0.00    -0.244 NA
ATOM     20  C   UNL     1      23.569  20.706  13.835  0.00  0.00    +0.099 A 
ATOM     21  C   UNL     1      24.610  20.276  14.684  0.00  0.00    +0.021 A 
ENDBRANCH   6  12
BRANCH   1  25
ATOM     22  C   UNL     1      28.728  19.946  24.548  0.00  0.00    +0.048 A 
ATOM     23  C   UNL     1      29.465  20.508  23.508  0.00  0.00    +0.016 A 
ATOM     24  C   UNL     1      29.166  20.177  22.193  0.00  0.00    +0.019 A 
ATOM     25  C   UNL     1      28.099  19.325  21.909  0.00  0.00    +0.068 A 
ATOM     26  C   UNL     1      27.396  18.727  22.942  0.00  0.00    +0.019 A 
ATOM     27  C   UNL     1      27.704  19.042  24.258  0.00  0.00    +0.016 A 
BRANCH  22  29
ATOM     28  C   UNL     1      30.352  20.616  26.238  0.00  0.00    +0.123 C 
ATOM     29  N   UNL     1      29.024  20.240  25.925  0.00  0.00    -0.303 N 
ATOM     30  C   UNL     1      28.354  19.462  26.893  0.00  0.00    +0.123 C 
ATOM     31  C   UNL     1      29.270  18.618  27.756  0.00  0.00    +0.164 C 
ATOM     32  O   UNL     1      30.549  18.373  27.184  0.00  0.00    -0.350 OA
ATOM     33  C   UNL     1      31.249  19.546  26.845  0.00  0.00    +0.164 C 
ENDBRANCH  22  29
ENDBRANCH   1  25
TORSDOF 3
ENDMDL
MODEL 2
REMARK VINA RESULT:      -5.6      2.130      4.139
REMARK  Name = 6GIN_IR2.pdb
REMARK  3 active torsions:
REMARK  status: ('A' for Active; 'I' for Inactive)
REMARK    1  A    between atoms: _6  and  _7
REMARK    2  A    between atoms: _10  and  _13
REMARK    3  A    between atoms: _19  and  _24
REMARK                            x       y       z     vdW  Elec       q    Type
REMARK                         _______ _______ _______ _____ _____    ______ ____
ROOT
ATOM      1  N   UNL     1      26.192  19.188  17.256  0.00  0.00    -0.257 N 
ATOM      2  C   UNL     1      24.897  18.707  17.130  0.00  0.00    +0.267 A 
ATOM      3  O   UNL     1      24.430  18.011  18.021  0.00  0.00    -0.267 OA
ATOM      4  C   UNL     1      24.141  19.081  15.882  0.00  0.00    +0.074 A 
ATOM      5  C   UNL     1      22.827  18.619  15.674  0.00  0.00    +0.006 A 
ATOM      6  C   UNL     1      22.123  18.951  14.506  0.00  0.00    +0.000 A 
ATOM      7  C   UNL     1      22.720  19.777  13.536  0.00  0.00    +0.002 A 
ATOM      8  C   UNL     1      24.011  20.246  13.719  0.00  0.00    +0.019 A 
ATOM      9  C   UNL     1      24.696  19.877  14.920  0.00  0.00    +0.088 A 
ATOM     10  N   UNL     1      26.019  20.362  15.075  0.00  0.00    -0.225 NA
ATOM     11  C   UNL     1      26.733  20.015  16.255  0.00  0.00    +0.185 A 
ENDROOT
BRANCH   6  12
ATOM     12  C   UNL     1      20.806  18.506  14.310  0.00  0.00    +0.003 A 
ATOM     13  C   UNL     1      20.392  17.136  14.589  0.00  0.00    +0.018 A 
ATOM     14  C   UNL     1      21.279  16.117  15.077  0.00  0.00    +0.001 A 
ATOM     15  C   UNL     1      20.887  14.786  15.322  0.00  0.00    +0.000 A 
ATOM     16  C   UNL     1      19.550  14.459  15.084  0.00  0.00    +0.002 A 
ATOM     17  C   UNL     1      18.659  15.442  14.646  0.00  0.00    +0.019 A 
ATOM     18  C   UNL     1      19.088  16.790  14.385  0.00  0.00    +0.081 A 
ATOM     19  N   UNL     1      18.181  17.748  13.932  0.00  0.00    -0.244 NA
ATOM     20  C   UNL     1      18.517  19.030  13.684  0.00  0.00    +0.099 A 
ATOM     21  C   UNL     1      19.858  19.421  13.883  0.00  0.00    +0.021 A 
ENDBRANCH   6  12
BRANCH   1  25
ATOM     22  C   UNL     1      28.509  18.494  20.679  0.00  0.00    +0.048 A 
ATOM     23  C   UNL     1      28.769  17.774  19.515  0.00  0.00    +0.016 A 
ATOM     24  C   UNL     1      28.010  18.010  18.375  0.00  0.00    +0.019 A 
ATOM     25  C   UNL     1      27.027  18.998  18.379  0.00  0.00    +0.068 A 
ATOM     26  C   UNL     1      26.735  19.682  19.549  0.00  0.00    +0.019 A 
ATOM     27  C   UNL     1      27.479  19.435  20.694  0.00  0.00    +0.016 A 
BRANCH  22  29
ATOM     28  C   UNL     1      28.681  17.385  22.844  0.00  0.00    +0.123 C 
ATOM     29  N   UNL     1      29.252  18.259  21.890  0.00  0.00    -0.303 N 
ATOM     30  C   UNL     1      29.976  19.356  22.405  0.00  0.00    +0.123 C 
ATOM     31  C   UNL     1      29.519  19.812  23.776  0.00  0.00    +0.164 C 
ATOM     32  O   UNL     1      28.197  19.414  24.114  0.00  0.00    -0.350 OA
ATOM     33  C   UNL     1      27.992  18.024  24.041  0.00  0.00    +0.164 C 
ENDBRANCH  22  29
ENDBRANCH   1  25
TORSDOF 3
ENDMDL
MODEL 3
REMARK VINA RESULT:      -5.5      2.167      3.541
REMARK  Name = 6GIN_IR2.pdb
REMARK  3 active torsions:
REMARK  status: ('A' for Active; 'I' for Inactive)
REMARK    1  A    between atoms: _6  and  _7
REMARK    2  A    between atoms: _10  and  _13
REMARK    3  A    between atoms: _19  and  _24
REMARK                            x       y       z     vdW  Elec       q    Type
REMARK                         _______ _______ _______ _____ _____    ______ ____
ROOT
ATOM      1  N   UNL     1      27.795  18.488  22.780  0.00  0.00    -0.257 N 
ATOM      2  C   UNL     1      27.518  19.249  21.655  0.00  0.00    +0.267 A 
ATOM      3  O   UNL     1      27.778  20.445  21.665  0.00  0.00    -0.267 OA
ATOM      4  C   UNL     1      26.904  18.541  20.477  0.00  0.00    +0.074 A 
ATOM      5  C   UNL     1      26.580  19.249  19.303  0.00  0.00    +0.006 A 
ATOM      6  C   UNL     1      25.993  18.598  18.208  0.00  0.00    +0.000 A 
ATOM      7  C   UNL     1      25.745  17.214  18.262  0.00  0.00    +0.002 A 
ATOM      8  C   UNL     1      26.057  16.494  19.405  0.00  0.00    +0.019 A 
ATOM      9  C   UNL     1      26.646  17.199  20.502  0.00  0.00    +0.088 A 
ATOM     10  N   UNL     1      26.945  16.440  21.662  0.00  0.00    -0.225 NA
ATOM     11  C   UNL     1      27.530  17.106  22.773  0.00  0.00    +0.185 A 
ENDROOT
BRANCH   6  12
ATOM     12  C   UNL     1      25.690  19.302  17.031  0.00  0.00    +0.003 A 
ATOM     13  C   UNL     1      26.719  19.759  16.104  0.00  0.00    +0.018 A 
ATOM     14  C   UNL     1      28.125  19.545  16.303  0.00  0.00    +0.001 A 
ATOM     15  C   UNL     1      29.122  20.009  15.421  0.00  0.00    +0.000 A 
ATOM     16  C   UNL     1      28.699  20.703  14.286  0.00  0.00    +0.002 A 
ATOM     17  C   UNL     1      27.334  20.890  14.051  0.00  0.00    +0.019 A 
ATOM     18  C   UNL     1      26.336  20.424  14.975  0.00  0.00    +0.081 A 
ATOM     19  N   UNL     1      24.981  20.639  14.725  0.00  0.00    -0.244 NA
ATOM     20  C   UNL     1      23.998  20.214  15.544  0.00  0.00    +0.099 A 
ATOM     21  C   UNL     1      24.358  19.524  16.721  0.00  0.00    +0.021 A 
ENDBRANCH   6  12
BRANCH   1  25
ATOM     22  C   UNL     1      29.624  19.694  26.354  0.00  0.00    +0.048 A 
ATOM     23  C   UNL     1      30.409  19.228  25.302  0.00  0.00    +0.016 A 
ATOM     24  C   UNL     1      29.807  18.839  24.112  0.00  0.00    +0.019 A 
ATOM     25  C   UNL     1      28.427  18.961  23.951  0.00  0.00    +0.068 A 
ATOM     26  C   UNL     1      27.640  19.378  25.012  0.00  0.00    +0.019 A 
ATOM     27  C   UNL     1      28.237  19.750  26.207  0.00  0.00    +0.016 A 
BRANCH  22  29
ATOM     28  C   UNL     1      31.425  20.794  27.574  0.00  0.00    +0.123 C 
ATOM     29  N   UNL     1      30.205  20.079  27.613  0.00  0.00    -0.303 N 
ATOM     30  C   UNL     1      30.051  19.169  28.681  0.00  0.00    +0.123 C 
ATOM     31  C   UNL     1      31.354  18.609  29.214  0.00  0.00    +0.164 C 
ATOM     32  O   UNL     1      32.443  18.696  28.303  0.00  0.00    -0.350 OA
ATOM     33  C   UNL     1      32.697  20.005  27.853  0.00  0.00    +0.164 C 
ENDBRANCH  22  29
ENDBRANCH   1  25
TORSDOF 3
ENDMDL
MODEL 4
REMARK VINA RESULT:      -5.4      3.455     12.556
REMARK  Name = 6GIN_IR2.pdb
REMARK  3 active torsions:
REMARK  status: ('A' for Active; 'I' for Inactive)
REMARK    1  A    between atoms: _6  and  _7
REMARK    2  A    between atoms: _10  and  _13
REMARK    3  A    between atoms: _19  and  _24
REMARK                            x       y       z     vdW  Elec       q    Type
REMARK                         _______ _______ _______ _____ _____    ______ ____
ROOT
ATOM      1  N   UNL     1      28.186  18.187  25.110  0.00  0.00    -0.257 N 
ATOM      2  C   UNL     1      28.216  18.943  26.272  0.00  0.00    +0.267 A 
ATOM      3  O   UNL     1      28.101  20.158  26.197  0.00  0.00    -0.267 OA
ATOM      4  C   UNL     1      28.392  18.202  27.572  0.00  0.00    +0.074 A 
ATOM      5  C   UNL     1      28.447  18.901  28.794  0.00  0.00    +0.006 A 
ATOM      6  C   UNL     1      28.626  18.219  30.007  0.00  0.00    +0.000 A 
ATOM      7  C   UNL     1      28.727  16.815  30.016  0.00  0.00    +0.002 A 
ATOM      8  C   UNL     1      28.673  16.104  28.827  0.00  0.00    +0.019 A 
ATOM      9  C   UNL     1      28.498  16.841  27.612  0.00  0.00    +0.088 A 
ATOM     10  N   UNL     1      28.458  16.089  26.411  0.00  0.00    -0.225 NA
ATOM     11  C   UNL     1      28.286  16.785  25.183  0.00  0.00    +0.185 A 
ENDROOT
BRANCH   6  12
ATOM     12  C   UNL     1      28.661  18.915  31.225  0.00  0.00    +0.003 A 
ATOM     13  C   UNL     1      29.553  20.046  31.457  0.00  0.00    +0.018 A 
ATOM     14  C   UNL     1      30.477  20.547  30.478  0.00  0.00    +0.001 A 
ATOM     15  C   UNL     1      31.358  21.622  30.709  0.00  0.00    +0.000 A 
ATOM     16  C   UNL     1      31.306  22.234  31.963  0.00  0.00    +0.002 A 
ATOM     17  C   UNL     1      30.388  21.789  32.918  0.00  0.00    +0.019 A 
ATOM     18  C   UNL     1      29.512  20.677  32.666  0.00  0.00    +0.081 A 
ATOM     19  N   UNL     1      28.616  20.242  33.643  0.00  0.00    -0.244 NA
ATOM     20  C   UNL     1      27.760  19.217  33.462  0.00  0.00    +0.099 A 
ATOM     21  C   UNL     1      27.776  18.541  32.224  0.00  0.00    +0.021 A 
ENDBRANCH   6  12
BRANCH   1  25
ATOM     22  C   UNL     1      27.524  19.482  21.180  0.00  0.00    +0.048 A 
ATOM     23  C   UNL     1      26.458  19.427  22.075  0.00  0.00    +0.016 A 
ATOM     24  C   UNL     1      26.676  19.010  23.382  0.00  0.00    +0.019 A 
ATOM     25  C   UNL     1      27.965  18.695  23.812  0.00  0.00    +0.068 A 
ATOM     26  C   UNL     1      29.018  18.703  22.911  0.00  0.00    +0.019 A 
ATOM     27  C   UNL     1      28.799  19.102  21.600  0.00  0.00    +0.016 A 
BRANCH  22  29
ATOM     28  C   UNL     1      26.153  19.449  19.163  0.00  0.00    +0.123 C 
ATOM     29  N   UNL     1      27.335  19.881  19.809  0.00  0.00    -0.303 N 
ATOM     30  C   UNL     1      28.495  19.944  19.007  0.00  0.00    +0.123 C 
ATOM     31  C   UNL     1      28.497  18.977  17.841  0.00  0.00    +0.164 C 
ATOM     32  O   UNL     1      27.610  17.875  17.993  0.00  0.00    -0.350 OA
ATOM     33  C   UNL     1      26.275  18.256  18.225  0.00  0.00    +0.164 C 
ENDBRANCH  22  29
ENDBRANCH   1  25
TORSDOF 3
ENDMDL
MODEL 5
REMARK VINA RESULT:      -5.3      7.937     12.578
REMARK  Name = 6GIN_IR2.pdb
REMARK  3 active torsions:
REMARK  status: ('A' for Active; 'I' for Inactive)
REMARK    1  A    between atoms: _6  and  _7
REMARK    2  A    between atoms: _10  and  _13
REMARK    3  A    between atoms: _19  and  _24
REMARK                            x       y       z     vdW  Elec       q    Type
REMARK                         _______ _______ _______ _____ _____    ______ ____
ROOT
ATOM      1  N   UNL     1      24.057  14.884  30.309  0.00  0.00    -0.257 N 
ATOM      2  C   UNL     1      24.576  15.074  29.037  0.00  0.00    +0.267 A 
ATOM      3  O   UNL     1      23.870  14.850  28.064  0.00  0.00    -0.267 OA
ATOM      4  C   UNL     1      26.002  15.551  28.939  0.00  0.00    +0.074 A 
ATOM      5  C   UNL     1      26.606  15.753  27.683  0.00  0.00    +0.006 A 
ATOM      6  C   UNL     1      27.938  16.182  27.585  0.00  0.00    +0.000 A 
ATOM      7  C   UNL     1      28.681  16.443  28.751  0.00  0.00    +0.002 A 
ATOM      8  C   UNL     1      28.108  16.255  29.999  0.00  0.00    +0.019 A 
ATOM      9  C   UNL     1      26.749  15.808  30.053  0.00  0.00    +0.088 A 
ATOM     10  N   UNL     1      26.193  15.613  31.343  0.00  0.00    -0.225 NA
ATOM     11  C   UNL     1      24.846  15.168  31.438  0.00  0.00    +0.185 A 
ENDROOT
BRANCH   6  12
ATOM     12  C   UNL     1      28.531  16.402  26.332  0.00  0.00    +0.003 A 
ATOM     13  C   UNL     1      28.706  17.737  25.770  0.00  0.00    +0.018 A 
ATOM     14  C   UNL     1      28.286  18.942  26.430  0.00  0.00    +0.001 A 
ATOM     15  C   UNL     1      28.431  20.230  25.877  0.00  0.00    +0.000 A 
ATOM     16  C   UNL     1      29.031  20.323  24.621  0.00  0.00    +0.002 A 
ATOM     17  C   UNL     1      29.482  19.168  23.976  0.00  0.00    +0.019 A 
ATOM     18  C   UNL     1      29.307  17.863  24.552  0.00  0.00    +0.081 A 
ATOM     19  N   UNL     1      29.752  16.724  23.878  0.00  0.00    -0.244 NA
ATOM     20  C   UNL     1      29.630  15.475  24.371  0.00  0.00    +0.099 A 
ATOM     21  C   UNL     1      29.012  15.309  25.628  0.00  0.00    +0.021 A 
ENDBRANCH   6  12
BRANCH   1  25
ATOM     22  C   UNL     1      20.185  13.677  31.366  0.00  0.00    +0.048 A 
ATOM     23  C   UNL     1      20.565  15.005  31.546  0.00  0.00    +0.016 A 
ATOM     24  C   UNL     1      21.843  15.411  31.185  0.00  0.00    +0.019 A 
ATOM     25  C   UNL     1      22.727  14.506  30.599  0.00  0.00    +0.068 A 
ATOM     26  C   UNL     1      22.369  13.175  30.463  0.00  0.00    +0.019 A 
ATOM     27  C   UNL     1      21.099  12.762  30.839  0.00  0.00    +0.016 A 
BRANCH  22  29
ATOM     28  C   UNL     1      18.109  12.543  30.771  0.00  0.00    +0.123 C 
ATOM     29  N   UNL     1      18.879  13.208  31.754  0.00  0.00    -0.303 N 
ATOM     30  C   UNL     1      18.165  14.020  32.661  0.00  0.00    +0.123 C 
ATOM     31  C   UNL     1      16.870  14.580  32.106  0.00  0.00    +0.164 C 
ATOM     32  O   UNL     1      16.806  14.608  30.686  0.00  0.00    -0.350 OA
ATOM     33  C   UNL     1      17.014  13.350  30.088  0.00  0.00    +0.164 C 
ENDBRANCH  22  29
ENDBRANCH   1  25
TORSDOF 3
ENDMDL
MODEL 6
REMARK VINA RESULT:      -5.3      3.714     12.580
REMARK  Name = 6GIN_IR2.pdb
REMARK  3 active torsions:
REMARK  status: ('A' for Active; 'I' for Inactive)
REMARK    1  A    between atoms: _6  and  _7
REMARK    2  A    between atoms: _10  and  _13
REMARK    3  A    between atoms: _19  and  _24
REMARK                            x       y       z     vdW  Elec       q    Type
REMARK                         _______ _______ _______ _____ _____    ______ ____
ROOT
ATOM      1  N   UNL     1      28.866  18.554  25.357  0.00  0.00    -0.257 N 
ATOM      2  C   UNL     1      28.487  19.111  26.569  0.00  0.00    +0.267 A 
ATOM      3  O   UNL     1      27.778  20.108  26.572  0.00  0.00    -0.267 OA
ATOM      4  C   UNL     1      28.984  18.440  27.822  0.00  0.00    +0.074 A 
ATOM      5  C   UNL     1      28.654  18.955  29.091  0.00  0.00    +0.006 A 
ATOM      6  C   UNL     1      29.127  18.344  30.262  0.00  0.00    +0.000 A 
ATOM      7  C   UNL     1      29.920  17.184  30.179  0.00  0.00    +0.002 A 
ATOM      8  C   UNL     1      30.256  16.656  28.943  0.00  0.00    +0.019 A 
ATOM      9  C   UNL     1      29.760  17.317  27.774  0.00  0.00    +0.088 A 
ATOM     10  N   UNL     1      30.129  16.761  26.523  0.00  0.00    -0.225 NA
ATOM     11  C   UNL     1      29.656  17.390  25.338  0.00  0.00    +0.185 A 
ENDROOT
BRANCH   6  12
ATOM     12  C   UNL     1      28.780  18.847  31.526  0.00  0.00    +0.003 A 
ATOM     13  C   UNL     1      27.917  18.120  32.449  0.00  0.00    +0.018 A 
ATOM     14  C   UNL     1      27.337  16.838  32.159  0.00  0.00    +0.001 A 
ATOM     15  C   UNL     1      26.481  16.146  33.039  0.00  0.00    +0.000 A 
ATOM     16  C   UNL     1      26.203  16.749  34.267  0.00  0.00    +0.002 A 
ATOM     17  C   UNL     1      26.786  17.978  34.588  0.00  0.00    +0.019 A 
ATOM     18  C   UNL     1      27.641  18.674  33.666  0.00  0.00    +0.081 A 
ATOM     19  N   UNL     1      28.197  19.908  34.005  0.00  0.00    -0.244 NA
ATOM     20  C   UNL     1      29.017  20.602  33.190  0.00  0.00    +0.099 A 
ATOM     21  C   UNL     1      29.322  20.059  31.925  0.00  0.00    +0.021 A 
ENDBRANCH   6  12
BRANCH   1  25
ATOM     22  C   UNL     1      27.717  19.701  21.493  0.00  0.00    +0.048 A 
ATOM     23  C   UNL     1      26.792  19.083  22.331  0.00  0.00    +0.016 A 
ATOM     24  C   UNL     1      27.166  18.713  23.617  0.00  0.00    +0.019 A 
ATOM     25  C   UNL     1      28.447  19.003  24.086  0.00  0.00    +0.068 A 
ATOM     26  C   UNL     1      29.383  19.573  23.239  0.00  0.00    +0.019 A 
ATOM     27  C   UNL     1      29.018  19.928  21.948  0.00  0.00    +0.016 A 
BRANCH  22  29
ATOM     28  C   UNL     1      26.140  19.619  19.635  0.00  0.00    +0.123 C 
ATOM     29  N   UNL     1      27.379  20.074  20.144  0.00  0.00    -0.303 N 
ATOM     30  C   UNL     1      28.446  20.135  19.223  0.00  0.00    +0.123 C 
ATOM     31  C   UNL     1      28.335  19.148  18.078  0.00  0.00    +0.164 C 
ATOM     32  O   UNL     1      27.483  18.041  18.341  0.00  0.00    -0.350 OA
ATOM     33  C   UNL     1      26.176  18.411  18.708  0.00  0.00    +0.164 C 
ENDBRANCH  22  29
ENDBRANCH   1  25
TORSDOF 3
ENDMDL
MODEL 7
REMARK VINA RESULT:      -5.2     13.705     17.701
REMARK  Name = 6GIN_IR2.pdb
REMARK  3 active torsions:
REMARK  status: ('A' for Active; 'I' for Inactive)
REMARK    1  A    between atoms: _6  and  _7
REMARK    2  A    between atoms: _10  and  _13
REMARK    3  A    between atoms: _19  and  _24
REMARK                            x       y       z     vdW  Elec       q    Type
REMARK                         _______ _______ _______ _____ _____    ______ ____
ROOT
ATOM      1  N   UNL     1      27.921  18.991  33.436  0.00  0.00    -0.257 N 
ATOM      2  C   UNL     1      28.403  19.747  34.494  0.00  0.00    +0.267 A 
ATOM      3  O   UNL     1      28.115  19.423  35.638  0.00  0.00    -0.267 OA
ATOM      4  C   UNL     1      29.261  20.937  34.156  0.00  0.00    +0.074 A 
ATOM      5  C   UNL     1      29.775  21.763  35.174  0.00  0.00    +0.006 A 
ATOM      6  C   UNL     1      30.563  22.882  34.866  0.00  0.00    +0.000 A 
ATOM      7  C   UNL     1      30.871  23.178  33.525  0.00  0.00    +0.002 A 
ATOM      8  C   UNL     1      30.380  22.379  32.505  0.00  0.00    +0.019 A 
ATOM      9  C   UNL     1      29.573  21.252  32.864  0.00  0.00    +0.088 A 
ATOM     10  N   UNL     1      29.075  20.459  31.799  0.00  0.00    -0.225 NA
ATOM     11  C   UNL     1      28.269  19.332  32.116  0.00  0.00    +0.185 A 
ENDROOT
BRANCH   6  12
ATOM     12  C   UNL     1      31.090  23.693  35.884  0.00  0.00    +0.003 A 
ATOM     13  C   UNL     1      30.527  24.995  36.220  0.00  0.00    +0.018 A 
ATOM     14  C   UNL     1      29.398  25.575  35.548  0.00  0.00    +0.001 A 
ATOM     15  C   UNL     1      28.869  26.844  35.854  0.00  0.00    +0.000 A 
ATOM     16  C   UNL     1      29.482  27.561  36.883  0.00  0.00    +0.002 A 
ATOM     17  C   UNL     1      30.558  27.002  37.578  0.00  0.00    +0.019 A 
ATOM     18  C   UNL     1      31.092  25.712  37.235  0.00  0.00    +0.081 A 
ATOM     19  N   UNL     1      32.179  25.185  37.933  0.00  0.00    -0.244 NA
ATOM     20  C   UNL     1      32.715  23.976  37.669  0.00  0.00    +0.099 A 
ATOM     21  C   UNL     1      32.156  23.209  36.626  0.00  0.00    +0.021 A 
ENDBRANCH   6  12
BRANCH   1  25
ATOM     22  C   UNL     1      25.475  15.604  33.768  0.00  0.00    +0.048 A 
ATOM     23  C   UNL     1      26.120  15.871  32.563  0.00  0.00    +0.016 A 
ATOM     24  C   UNL     1      26.941  16.986  32.453  0.00  0.00    +0.019 A 
ATOM     25  C   UNL     1      27.160  17.808  33.558  0.00  0.00    +0.068 A 
ATOM     26  C   UNL     1      26.482  17.571  34.743  0.00  0.00    +0.019 A 
ATOM     27  C   UNL     1      25.647  16.469  34.851  0.00  0.00    +0.016 A 
BRANCH  22  29
ATOM     28  C   UNL     1      23.873  14.059  32.771  0.00  0.00    +0.123 C 
ATOM     29  N   UNL     1      24.593  14.475  33.915  0.00  0.00    -0.303 N 
ATOM     30  C   UNL     1      23.917  14.362  35.150  0.00  0.00    +0.123 C 
ATOM     31  C   UNL     1      22.409  14.453  35.043  0.00  0.00    +0.164 C 
ATOM     32  O   UNL     1      21.943  15.088  33.859  0.00  0.00    -0.350 OA
ATOM     33  C   UNL     1      22.416  14.488  32.676  0.00  0.00    +0.164 C 
ENDBRANCH  22  29
ENDBRANCH   1  25
TORSDOF 3
ENDMDL
MODEL 8
REMARK VINA RESULT:      -5.2      6.586     10.814
REMARK  Name = 6GIN_IR2.pdb
REMARK  3 active torsions:
REMARK  status: ('A' for Active; 'I' for Inactive)
REMARK    1  A    between atoms: _6  and  _7
REMARK    2  A    between atoms: _10  and  _13
REMARK    3  A    between atoms: _19  and  _24
REMARK                            x       y       z     vdW  Elec       q    Type
REMARK                         _______ _______ _______ _____ _____    ______ ____
ROOT
ATOM      1  N   UNL     1      29.380  18.941  24.938  0.00  0.00    -0.257 N 
ATOM      2  C   UNL     1      28.551  18.873  26.047  0.00  0.00    +0.267 A 
ATOM      3  O   UNL     1      27.916  19.864  26.380  0.00  0.00    -0.267 OA
ATOM      4  C   UNL     1      28.488  17.559  26.781  0.00  0.00    +0.074 A 
ATOM      5  C   UNL     1      27.680  17.414  27.926  0.00  0.00    +0.006 A 
ATOM      6  C   UNL     1      27.629  16.198  28.622  0.00  0.00    +0.000 A 
ATOM      7  C   UNL     1      28.370  15.093  28.164  0.00  0.00    +0.002 A 
ATOM      8  C   UNL     1      29.170  15.209  27.039  0.00  0.00    +0.019 A 
ATOM      9  C   UNL     1      29.200  16.470  26.363  0.00  0.00    +0.088 A 
ATOM     10  N   UNL     1      30.036  16.563  25.222  0.00  0.00    -0.225 NA
ATOM     11  C   UNL     1      30.093  17.801  24.524  0.00  0.00    +0.185 A 
ENDROOT
BRANCH   6  12
ATOM     12  C   UNL     1      26.807  16.051  29.751  0.00  0.00    +0.003 A 
ATOM     13  C   UNL     1      25.423  15.602  29.660  0.00  0.00    +0.018 A 
ATOM     14  C   UNL     1      24.768  15.278  28.423  0.00  0.00    +0.001 A 
ATOM     15  C   UNL     1      23.423  14.869  28.331  0.00  0.00    +0.000 A 
ATOM     16  C   UNL     1      22.703  14.764  29.522  0.00  0.00    +0.002 A 
ATOM     17  C   UNL     1      23.329  15.037  30.741  0.00  0.00    +0.019 A 
ATOM     18  C   UNL     1      24.698  15.470  30.809  0.00  0.00    +0.081 A 
ATOM     19  N   UNL     1      25.294  15.753  32.039  0.00  0.00    -0.244 NA
ATOM     20  C   UNL     1      26.576  16.149  32.169  0.00  0.00    +0.099 A 
ATOM     21  C   UNL     1      27.354  16.296  31.001  0.00  0.00    +0.021 A 
ENDBRANCH   6  12
BRANCH   1  25
ATOM     22  C   UNL     1      29.987  22.182  22.350  0.00  0.00    +0.048 A 
ATOM     23  C   UNL     1      29.135  21.147  21.969  0.00  0.00    +0.016 A 
ATOM     24  C   UNL     1      28.922  20.078  22.830  0.00  0.00    +0.019 A 
ATOM     25  C   UNL     1      29.518  20.062  24.090  0.00  0.00    +0.068 A 
ATOM     26  C   UNL     1      30.403  21.065  24.451  0.00  0.00    +0.019 A 
ATOM     27  C   UNL     1      30.632  22.126  23.587  0.00  0.00    +0.016 A 
BRANCH  22  29
ATOM     28  C   UNL     1      30.973  24.387  22.017  0.00  0.00    +0.123 C 
ATOM     29  N   UNL     1      30.257  23.293  21.475  0.00  0.00    -0.303 N 
ATOM     30  C   UNL     1      29.254  23.611  20.534  0.00  0.00    +0.123 C 
ATOM     31  C   UNL     1      28.649  24.988  20.712  0.00  0.00    +0.164 C 
ATOM     32  O   UNL     1      28.818  25.538  22.013  0.00  0.00    -0.350 OA
ATOM     33  C   UNL     1      30.163  25.611  22.422  0.00  0.00    +0.164 C 
ENDBRANCH  22  29
ENDBRANCH   1  25
TORSDOF 3
ENDMDL
MODEL 9
REMARK VINA RESULT:      -5.2      1.512      2.128
REMARK  Name = 6GIN_IR2.pdb
REMARK  3 active torsions:
REMARK  status: ('A' for Active; 'I' for Inactive)
REMARK    1  A    between atoms: _6  and  _7
REMARK    2  A    between atoms: _10  and  _13
REMARK    3  A    between atoms: _19  and  _24
REMARK                            x       y       z     vdW  Elec       q    Type
REMARK                         _______ _______ _______ _____ _____    ______ ____
ROOT
ATOM      1  N   UNL     1      28.342  18.718  22.375  0.00  0.00    -0.257 N 
ATOM      2  C   UNL     1      27.219  18.851  21.574  0.00  0.00    +0.267 A 
ATOM      3  O   UNL     1      26.125  19.003  22.101  0.00  0.00    -0.267 OA
ATOM      4  C   UNL     1      27.424  18.796  20.083  0.00  0.00    +0.074 A 
ATOM      5  C   UNL     1      26.330  18.908  19.203  0.00  0.00    +0.006 A 
ATOM      6  C   UNL     1      26.512  18.843  17.814  0.00  0.00    +0.000 A 
ATOM      7  C   UNL     1      27.805  18.689  17.281  0.00  0.00    +0.002 A 
ATOM      8  C   UNL     1      28.899  18.580  18.125  0.00  0.00    +0.019 A 
ATOM      9  C   UNL     1      28.666  18.643  19.536  0.00  0.00    +0.088 A 
ATOM     10  N   UNL     1      29.802  18.516  20.376  0.00  0.00    -0.225 NA
ATOM     11  C   UNL     1      29.611  18.573  21.784  0.00  0.00    +0.185 A 
ENDROOT
BRANCH   6  12
ATOM     12  C   UNL     1      25.422  18.975  16.939  0.00  0.00    +0.003 A 
ATOM     13  C   UNL     1      24.397  17.947  16.803  0.00  0.00    +0.018 A 
ATOM     14  C   UNL     1      24.403  16.711  17.535  0.00  0.00    +0.001 A 
ATOM     15  C   UNL     1      23.427  15.705  17.386  0.00  0.00    +0.000 A 
ATOM     16  C   UNL     1      22.393  15.947  16.480  0.00  0.00    +0.002 A 
ATOM     17  C   UNL     1      22.344  17.159  15.785  0.00  0.00    +0.019 A 
ATOM     18  C   UNL     1      23.361  18.162  15.940  0.00  0.00    +0.081 A 
ATOM     19  N   UNL     1      23.297  19.356  15.221  0.00  0.00    -0.244 NA
ATOM     20  C   UNL     1      24.212  20.341  15.333  0.00  0.00    +0.099 A 
ATOM     21  C   UNL     1      25.295  20.151  16.216  0.00  0.00    +0.021 A 
ENDBRANCH   6  12
BRANCH   1  25
ATOM     22  C   UNL     1      28.597  18.914  26.554  0.00  0.00    +0.048 A 
ATOM     23  C   UNL     1      28.748  20.076  25.800  0.00  0.00    +0.016 A 
ATOM     24  C   UNL     1      28.652  20.016  24.415  0.00  0.00    +0.019 A 
ATOM     25  C   UNL     1      28.356  18.809  23.784  0.00  0.00    +0.068 A 
ATOM     26  C   UNL     1      28.253  17.645  24.528  0.00  0.00    +0.019 A 
ATOM     27  C   UNL     1      28.366  17.698  25.909  0.00  0.00    +0.016 A 
BRANCH  22  29
ATOM     28  C   UNL     1      29.975  19.284  28.532  0.00  0.00    +0.123 C 
ATOM     29  N   UNL     1      28.718  18.928  27.989  0.00  0.00    -0.303 N 
ATOM     30  C   UNL     1      27.995  17.939  28.689  0.00  0.00    +0.123 C 
ATOM     31  C   UNL     1      28.862  16.972  29.471  0.00  0.00    +0.164 C 
ATOM     32  O   UNL     1      30.210  16.903  29.023  0.00  0.00    -0.350 OA
ATOM     33  C   UNL     1      30.865  18.148  29.016  0.00  0.00    +0.164 C 
ENDBRANCH  22  29
ENDBRANCH   1  25
TORSDOF 3
ENDMDL
