MODEL 1
REMARK VINA RESULT:      -9.0      0.000      0.000
REMARK  Name = 6I1S_E26.pdb
REMARK  8 active torsions:
REMARK  status: ('A' for Active; 'I' for Inactive)
REMARK    1  A    between atoms: _1  and  _2
REMARK    2  A    between atoms: _2  and  _3
REMARK    3  A    between atoms: _3  and  _4
REMARK    4  A    between atoms: _10  and  _28
REMARK    5  A    between atoms: _11  and  _27
REMARK    6  A    between atoms: _15  and  _16
REMARK    7  A    between atoms: _17  and  _18
REMARK    8  A    between atoms: _22  and  _24
REMARK                            x       y       z     vdW  Elec       q    Type
REMARK                         _______ _______ _______ _____ _____    ______ ____
ROOT
ATOM      1  C   UNL     1       5.465  27.410  12.213  0.00  0.00    +0.031 A 
ATOM      2  C   UNL     1       5.929  28.484  12.964  0.00  0.00    +0.069 A 
ATOM      3  C   UNL     1       6.248  28.277  14.298  0.00  0.00    +0.133 A 
ATOM      4  C   UNL     1       6.099  27.015  14.893  0.00  0.00    +0.107 A 
ATOM      5  C   UNL     1       6.469  26.896  16.374  0.00  0.00    +0.344 C 
ATOM      6  O   UNL     1       6.918  27.812  16.987  0.00  0.00    -0.245 OA
ATOM      7  O   UNL     1       6.218  25.677  17.016  0.00  0.00    -0.457 OA
ATOM      8  C   UNL     1       6.541  25.586  18.396  0.00  0.00    +0.180 C 
ATOM      9  C   UNL     1       5.428  26.089  19.274  0.00  0.00    +0.052 C 
ATOM     10  C   UNL     1       6.833  24.093  18.611  0.00  0.00    +0.049 C 
ATOM     11  C   UNL     1       7.211  23.809  20.062  0.00  0.00    +0.015 C 
ATOM     12  C   UNL     1       7.974  23.672  17.673  0.00  0.00    -0.017 C 
ATOM     13  C   UNL     1       8.020  22.523  16.996  0.00  0.00    +0.045 C 
ATOM     14  C   UNL     1       6.922  21.449  16.958  0.00  0.00    +0.187 C 
ATOM     15  O   UNL     1       6.022  21.376  17.734  0.00  0.00    -0.290 OA
ATOM     16  C   UNL     1       6.966  20.532  15.707  0.00  0.00    +0.213 C 
ATOM     17  C   UNL     1       6.774  21.446  14.478  0.00  0.00    +0.154 C 
ATOM     18  C   UNL     1       5.360  22.026  14.331  0.00  0.00    +0.061 C 
ATOM     19  C   UNL     1       5.482  23.468  13.811  0.00  0.00    -0.024 C 
ATOM     20  C   UNL     1       5.455  24.506  14.651  0.00  0.00    +0.005 C 
ATOM     21  C   UNL     1       5.626  25.935  14.117  0.00  0.00    -0.006 A 
ATOM     22  C   UNL     1       5.324  26.154  12.788  0.00  0.00    +0.032 A 
ENDROOT
BRANCH   1  23
ATOM     23  N   UNL     1       5.128  27.587  10.817  0.00  0.00    -0.344 N 
ATOM     24  H   UNL     1       4.823  26.920  10.351  0.00  0.00    +0.146 HD
BRANCH  23  26
ATOM     25  C   UNL     1       4.163  29.093   9.201  0.00  0.00    +0.024 C 
ATOM     26  C   UNL     1       5.306  28.891  10.203  0.00  0.00    +0.098 C 
ENDBRANCH  23  26
ENDBRANCH   1  23
BRANCH   3  27
ATOM     27  O   UNL     1       6.712  29.343  15.074  0.00  0.00    -0.506 OA
ATOM     28  H   UNL     1       7.208  29.843  14.599  0.00  0.00    +0.292 HD
ENDBRANCH   3  27
BRANCH  16  29
ATOM     29  O   UNL     1       5.996  19.561  15.792  0.00  0.00    -0.381 OA
ATOM     30  H   UNL     1       6.253  18.864  15.378  0.00  0.00    +0.210 HD
ENDBRANCH  16  29
BRANCH  17  31
ATOM     31  O   UNL     1       7.071  20.740  13.308  0.00  0.00    -0.388 OA
ATOM     32  H   UNL     1       7.580  21.210  12.816  0.00  0.00    +0.210 HD
ENDBRANCH  17  31
TORSDOF 5
ENDMDL
MODEL 2
REMARK VINA RESULT:      -8.7      3.003      6.491
REMARK  Name = 6I1S_E26.pdb
REMARK  8 active torsions:
REMARK  status: ('A' for Active; 'I' for Inactive)
REMARK    1  A    between atoms: _1  and  _2
REMARK    2  A    between atoms: _2  and  _3
REMARK    3  A    between atoms: _3  and  _4
REMARK    4  A    between atoms: _10  and  _28
REMARK    5  A    between atoms: _11  and  _27
REMARK    6  A    between atoms: _15  and  _16
REMARK    7  A    between atoms: _17  and  _18
REMARK    8  A    between atoms: _22  and  _24
REMARK                            x       y       z     vdW  Elec       q    Type
REMARK                         _______ _______ _______ _____ _____    ______ ____
ROOT
ATOM      1  C   UNL     1       6.407  19.255  12.804  0.00  0.00    +0.031 A 
ATOM      2  C   UNL     1       6.766  19.980  11.674  0.00  0.00    +0.069 A 
ATOM      3  C   UNL     1       6.852  21.362  11.767  0.00  0.00    +0.133 A 
ATOM      4  C   UNL     1       6.572  22.027  12.969  0.00  0.00    +0.107 A 
ATOM      5  C   UNL     1       6.685  23.554  12.962  0.00  0.00    +0.344 C 
ATOM      6  O   UNL     1       7.050  24.155  12.002  0.00  0.00    -0.245 OA
ATOM      7  O   UNL     1       6.297  24.246  14.118  0.00  0.00    -0.457 OA
ATOM      8  C   UNL     1       6.383  25.663  14.090  0.00  0.00    +0.180 C 
ATOM      9  C   UNL     1       5.152  26.294  13.499  0.00  0.00    +0.052 C 
ATOM     10  C   UNL     1       6.594  26.050  15.562  0.00  0.00    +0.049 C 
ATOM     11  C   UNL     1       6.716  27.562  15.722  0.00  0.00    +0.015 C 
ATOM     12  C   UNL     1       7.864  25.357  16.078  0.00  0.00    -0.017 C 
ATOM     13  C   UNL     1       7.992  24.797  17.283  0.00  0.00    +0.045 C 
ATOM     14  C   UNL     1       6.887  24.665  18.342  0.00  0.00    +0.187 C 
ATOM     15  O   UNL     1       5.869  25.281  18.335  0.00  0.00    -0.290 OA
ATOM     16  C   UNL     1       7.115  23.522  19.366  0.00  0.00    +0.213 C 
ATOM     17  C   UNL     1       7.156  22.205  18.562  0.00  0.00    +0.154 C 
ATOM     18  C   UNL     1       5.803  21.772  17.980  0.00  0.00    +0.061 C 
ATOM     19  C   UNL     1       6.050  21.161  16.590  0.00  0.00    -0.024 C 
ATOM     20  C   UNL     1       5.910  21.893  15.482  0.00  0.00    +0.005 C 
ATOM     21  C   UNL     1       6.207  21.277  14.107  0.00  0.00    -0.006 A 
ATOM     22  C   UNL     1       6.137  19.902  14.003  0.00  0.00    +0.032 A 
ENDROOT
BRANCH   1  23
ATOM     23  N   UNL     1       6.313  17.812  12.746  0.00  0.00    -0.344 N 
ATOM     24  H   UNL     1       5.999  17.421  12.037  0.00  0.00    +0.146 HD
BRANCH  23  26
ATOM     25  C   UNL     1       6.054  15.663  13.806  0.00  0.00    +0.024 C 
ATOM     26  C   UNL     1       6.750  17.026  13.886  0.00  0.00    +0.098 C 
ENDBRANCH  23  26
ENDBRANCH   1  23
BRANCH   3  27
ATOM     27  O   UNL     1       7.209  22.112  10.643  0.00  0.00    -0.506 OA
ATOM     28  H   UNL     1       6.826  22.870  10.675  0.00  0.00    +0.292 HD
ENDBRANCH   3  27
BRANCH  16  29
ATOM     29  O   UNL     1       6.118  23.524  20.314  0.00  0.00    -0.381 OA
ATOM     30  H   UNL     1       6.461  23.435  21.087  0.00  0.00    +0.210 HD
ENDBRANCH  16  29
BRANCH  17  31
ATOM     31  O   UNL     1       7.626  21.166  19.371  0.00  0.00    -0.388 OA
ATOM     32  H   UNL     1       7.589  20.434  18.941  0.00  0.00    +0.210 HD
ENDBRANCH  17  31
TORSDOF 5
ENDMDL
MODEL 3
REMARK VINA RESULT:      -8.7      2.848      7.826
REMARK  Name = 6I1S_E26.pdb
REMARK  8 active torsions:
REMARK  status: ('A' for Active; 'I' for Inactive)
REMARK    1  A    between atoms: _1  and  _2
REMARK    2  A    between atoms: _2  and  _3
REMARK    3  A    between atoms: _3  and  _4
REMARK    4  A    between atoms: _10  and  _28
REMARK    5  A    between atoms: _11  and  _27
REMARK    6  A    between atoms: _15  and  _16
REMARK    7  A    between atoms: _17  and  _18
REMARK    8  A    between atoms: _22  and  _24
REMARK                            x       y       z     vdW  Elec       q    Type
REMARK                         _______ _______ _______ _____ _____    ______ ____
ROOT
ATOM      1  C   UNL     1       7.129  21.718  19.000  0.00  0.00    +0.031 A 
ATOM      2  C   UNL     1       6.940  20.638  18.145  0.00  0.00    +0.069 A 
ATOM      3  C   UNL     1       6.534  20.883  16.841  0.00  0.00    +0.133 A 
ATOM      4  C   UNL     1       6.303  22.189  16.385  0.00  0.00    +0.107 A 
ATOM      5  C   UNL     1       5.846  22.348  14.933  0.00  0.00    +0.344 C 
ATOM      6  O   UNL     1       5.745  21.417  14.198  0.00  0.00    -0.245 OA
ATOM      7  O   UNL     1       5.498  23.632  14.492  0.00  0.00    -0.457 OA
ATOM      8  C   UNL     1       5.051  23.763  13.151  0.00  0.00    +0.180 C 
ATOM      9  C   UNL     1       3.577  23.496  13.014  0.00  0.00    +0.052 C 
ATOM     10  C   UNL     1       5.426  25.206  12.775  0.00  0.00    +0.049 C 
ATOM     11  C   UNL     1       5.019  25.525  11.340  0.00  0.00    +0.015 C 
ATOM     12  C   UNL     1       6.941  25.384  12.950  0.00  0.00    -0.017 C 
ATOM     13  C   UNL     1       7.527  26.465  13.469  0.00  0.00    +0.045 C 
ATOM     14  C   UNL     1       6.810  27.689  14.059  0.00  0.00    +0.187 C 
ATOM     15  O   UNL     1       5.662  27.950  13.880  0.00  0.00    -0.290 OA
ATOM     16  C   UNL     1       7.659  28.504  15.070  0.00  0.00    +0.213 C 
ATOM     17  C   UNL     1       8.000  27.550  16.235  0.00  0.00    +0.154 C 
ATOM     18  C   UNL     1       6.805  27.184  17.128  0.00  0.00    +0.061 C 
ATOM     19  C   UNL     1       6.945  25.709  17.539  0.00  0.00    -0.024 C 
ATOM     20  C   UNL     1       6.307  24.745  16.869  0.00  0.00    +0.005 C 
ATOM     21  C   UNL     1       6.497  23.274  17.266  0.00  0.00    -0.006 A 
ATOM     22  C   UNL     1       6.913  23.016  18.557  0.00  0.00    +0.032 A 
ENDROOT
BRANCH   1  23
ATOM     23  N   UNL     1       7.558  21.502  20.365  0.00  0.00    -0.344 N 
ATOM     24  H   UNL     1       7.464  20.723  20.736  0.00  0.00    +0.146 HD
BRANCH  23  26
ATOM     25  C   UNL     1       7.091  23.125  22.085  0.00  0.00    +0.024 C 
ATOM     26  C   UNL     1       8.149  22.602  21.106  0.00  0.00    +0.098 C 
ENDBRANCH  23  26
ENDBRANCH   1  23
BRANCH   3  27
ATOM     27  O   UNL     1       6.335  19.813  15.965  0.00  0.00    -0.506 OA
ATOM     28  H   UNL     1       7.058  19.373  15.886  0.00  0.00    +0.292 HD
ENDBRANCH   3  27
BRANCH  16  29
ATOM     29  O   UNL     1       6.966  29.615  15.490  0.00  0.00    -0.381 OA
ATOM     30  H   UNL     1       7.411  30.315  15.306  0.00  0.00    +0.210 HD
ENDBRANCH  16  29
BRANCH  17  31
ATOM     31  O   UNL     1       8.982  28.123  17.049  0.00  0.00    -0.388 OA
ATOM     32  H   UNL     1       9.677  28.281  16.585  0.00  0.00    +0.210 HD
ENDBRANCH  17  31
TORSDOF 5
ENDMDL
MODEL 4
REMARK VINA RESULT:      -8.5      9.103     12.859
REMARK  Name = 6I1S_E26.pdb
REMARK  8 active torsions:
REMARK  status: ('A' for Active; 'I' for Inactive)
REMARK    1  A    between atoms: _1  and  _2
REMARK    2  A    between atoms: _2  and  _3
REMARK    3  A    between atoms: _3  and  _4
REMARK    4  A    between atoms: _10  and  _28
REMARK    5  A    between atoms: _11  and  _27
REMARK    6  A    between atoms: _15  and  _16
REMARK    7  A    between atoms: _17  and  _18
REMARK    8  A    between atoms: _22  and  _24
REMARK                            x       y       z     vdW  Elec       q    Type
REMARK                         _______ _______ _______ _____ _____    ______ ____
ROOT
ATOM      1  C   UNL     1      13.349  21.584  25.165  0.00  0.00    +0.031 A 
ATOM      2  C   UNL     1      12.106  21.168  24.703  0.00  0.00    +0.069 A 
ATOM      3  C   UNL     1      11.776  21.396  23.375  0.00  0.00    +0.133 A 
ATOM      4  C   UNL     1      12.667  22.044  22.507  0.00  0.00    +0.107 A 
ATOM      5  C   UNL     1      12.202  22.257  21.064  0.00  0.00    +0.344 C 
ATOM      6  O   UNL     1      11.157  21.843  20.671  0.00  0.00    -0.245 OA
ATOM      7  O   UNL     1      13.026  23.004  20.213  0.00  0.00    -0.457 OA
ATOM      8  C   UNL     1      12.572  23.216  18.884  0.00  0.00    +0.180 C 
ATOM      9  C   UNL     1      11.662  24.409  18.779  0.00  0.00    +0.052 C 
ATOM     10  C   UNL     1      13.867  23.390  18.073  0.00  0.00    +0.049 C 
ATOM     11  C   UNL     1      13.564  23.624  16.596  0.00  0.00    +0.015 C 
ATOM     12  C   UNL     1      14.730  22.130  18.245  0.00  0.00    -0.017 C 
ATOM     13  C   UNL     1      16.055  22.130  18.407  0.00  0.00    +0.045 C 
ATOM     14  C   UNL     1      16.952  23.371  18.532  0.00  0.00    +0.187 C 
ATOM     15  O   UNL     1      16.624  24.475  18.228  0.00  0.00    -0.290 OA
ATOM     16  C   UNL     1      18.300  23.117  19.256  0.00  0.00    +0.213 C 
ATOM     17  C   UNL     1      17.956  22.638  20.683  0.00  0.00    +0.154 C 
ATOM     18  C   UNL     1      17.368  23.726  21.594  0.00  0.00    +0.061 C 
ATOM     19  C   UNL     1      16.280  23.083  22.471  0.00  0.00    -0.024 C 
ATOM     20  C   UNL     1      14.991  23.150  22.127  0.00  0.00    +0.005 C 
ATOM     21  C   UNL     1      13.925  22.462  22.991  0.00  0.00    -0.006 A 
ATOM     22  C   UNL     1      14.243  22.218  24.312  0.00  0.00    +0.032 A 
ENDROOT
BRANCH   1  23
ATOM     23  N   UNL     1      13.730  21.358  26.542  0.00  0.00    -0.344 N 
ATOM     24  H   UNL     1      13.255  21.691  27.189  0.00  0.00    +0.146 HD
BRANCH  23  26
ATOM     25  C   UNL     1      14.540  19.090  26.659  0.00  0.00    +0.024 C 
ATOM     26  C   UNL     1      14.913  20.568  26.831  0.00  0.00    +0.098 C 
ENDBRANCH  23  26
ENDBRANCH   1  23
BRANCH   3  27
ATOM     27  O   UNL     1      10.531  20.988  22.890  0.00  0.00    -0.506 OA
ATOM     28  H   UNL     1      10.540  20.150  22.753  0.00  0.00    +0.292 HD
ENDBRANCH   3  27
BRANCH  16  29
ATOM     29  O   UNL     1      19.065  24.260  19.259  0.00  0.00    -0.381 OA
ATOM     30  H   UNL     1      18.827  24.760  19.903  0.00  0.00    +0.210 HD
ENDBRANCH  16  29
BRANCH  17  31
ATOM     31  O   UNL     1      19.100  22.132  21.306  0.00  0.00    -0.388 OA
ATOM     32  H   UNL     1      19.323  21.400  20.935  0.00  0.00    +0.210 HD
ENDBRANCH  17  31
TORSDOF 5
ENDMDL
MODEL 5
REMARK VINA RESULT:      -8.4      1.935      5.240
REMARK  Name = 6I1S_E26.pdb
REMARK  8 active torsions:
REMARK  status: ('A' for Active; 'I' for Inactive)
REMARK    1  A    between atoms: _1  and  _2
REMARK    2  A    between atoms: _2  and  _3
REMARK    3  A    between atoms: _3  and  _4
REMARK    4  A    between atoms: _10  and  _28
REMARK    5  A    between atoms: _11  and  _27
REMARK    6  A    between atoms: _15  and  _16
REMARK    7  A    between atoms: _17  and  _18
REMARK    8  A    between atoms: _22  and  _24
REMARK                            x       y       z     vdW  Elec       q    Type
REMARK                         _______ _______ _______ _____ _____    ______ ____
ROOT
ATOM      1  C   UNL     1       5.557  24.402  10.548  0.00  0.00    +0.031 A 
ATOM      2  C   UNL     1       5.002  23.171  10.877  0.00  0.00    +0.069 A 
ATOM      3  C   UNL     1       5.147  22.698  12.173  0.00  0.00    +0.133 A 
ATOM      4  C   UNL     1       5.849  23.432  13.140  0.00  0.00    +0.107 A 
ATOM      5  C   UNL     1       5.962  22.816  14.537  0.00  0.00    +0.344 C 
ATOM      6  O   UNL     1       5.431  21.787  14.816  0.00  0.00    -0.245 OA
ATOM      7  O   UNL     1       6.756  23.476  15.483  0.00  0.00    -0.457 OA
ATOM      8  C   UNL     1       6.873  22.881  16.767  0.00  0.00    +0.180 C 
ATOM      9  C   UNL     1       7.965  21.847  16.816  0.00  0.00    +0.052 C 
ATOM     10  C   UNL     1       7.145  24.070  17.703  0.00  0.00    +0.049 C 
ATOM     11  C   UNL     1       7.294  23.609  19.149  0.00  0.00    +0.015 C 
ATOM     12  C   UNL     1       5.986  25.070  17.581  0.00  0.00    -0.017 C 
ATOM     13  C   UNL     1       6.124  26.398  17.547  0.00  0.00    +0.045 C 
ATOM     14  C   UNL     1       7.452  27.170  17.543  0.00  0.00    +0.187 C 
ATOM     15  O   UNL     1       8.505  26.704  17.843  0.00  0.00    -0.290 OA
ATOM     16  C   UNL     1       7.360  28.599  16.944  0.00  0.00    +0.213 C 
ATOM     17  C   UNL     1       6.902  28.439  15.479  0.00  0.00    +0.154 C 
ATOM     18  C   UNL     1       7.957  27.830  14.545  0.00  0.00    +0.061 C 
ATOM     19  C   UNL     1       7.242  26.900  13.551  0.00  0.00    -0.024 C 
ATOM     20  C   UNL     1       7.168  25.585  13.771  0.00  0.00    +0.005 C 
ATOM     21  C   UNL     1       6.409  24.680  12.790  0.00  0.00    -0.006 A 
ATOM     22  C   UNL     1       6.246  25.143  11.500  0.00  0.00    +0.032 A 
ENDROOT
BRANCH   1  23
ATOM     23  N   UNL     1       5.420  24.930   9.208  0.00  0.00    -0.344 N 
ATOM     24  H   UNL     1       5.228  24.402   8.546  0.00  0.00    +0.146 HD
BRANCH  23  26
ATOM     25  C   UNL     1       4.220  27.006   8.960  0.00  0.00    +0.024 C 
ATOM     26  C   UNL     1       5.607  26.352   8.983  0.00  0.00    +0.098 C 
ENDBRANCH  23  26
ENDBRANCH   1  23
BRANCH   3  27
ATOM     27  O   UNL     1       4.600  21.461  12.525  0.00  0.00    -0.506 OA
ATOM     28  H   UNL     1       3.755  21.492  12.445  0.00  0.00    +0.292 HD
ENDBRANCH   3  27
BRANCH  16  29
ATOM     29  O   UNL     1       8.573  29.239  17.046  0.00  0.00    -0.381 OA
ATOM     30  H   UNL     1       8.535  29.987  16.643  0.00  0.00    +0.210 HD
ENDBRANCH  16  29
BRANCH  17  31
ATOM     31  O   UNL     1       6.535  29.683  14.955  0.00  0.00    -0.388 OA
ATOM     32  H   UNL     1       6.841  29.759  14.166  0.00  0.00    +0.210 HD
ENDBRANCH  17  31
TORSDOF 5
ENDMDL
MODEL 6
REMARK VINA RESULT:      -8.3      3.247      7.828
REMARK  Name = 6I1S_E26.pdb
REMARK  8 active torsions:
REMARK  status: ('A' for Active; 'I' for Inactive)
REMARK    1  A    between atoms: _1  and  _2
REMARK    2  A    between atoms: _2  and  _3
REMARK    3  A    between atoms: _3  and  _4
REMARK    4  A    between atoms: _10  and  _28
REMARK    5  A    between atoms: _11  and  _27
REMARK    6  A    between atoms: _15  and  _16
REMARK    7  A    between atoms: _17  and  _18
REMARK    8  A    between atoms: _22  and  _24
REMARK                            x       y       z     vdW  Elec       q    Type
REMARK                         _______ _______ _______ _____ _____    ______ ____
ROOT
ATOM      1  C   UNL     1       6.793  17.884  15.509  0.00  0.00    +0.031 A 
ATOM      2  C   UNL     1       6.846  17.950  14.121  0.00  0.00    +0.069 A 
ATOM      3  C   UNL     1       6.611  19.169  13.502  0.00  0.00    +0.133 A 
ATOM      4  C   UNL     1       6.315  20.318  14.248  0.00  0.00    +0.107 A 
ATOM      5  C   UNL     1       6.061  21.610  13.467  0.00  0.00    +0.344 C 
ATOM      6  O   UNL     1       6.167  21.661  12.282  0.00  0.00    -0.245 OA
ATOM      7  O   UNL     1       5.649  22.741  14.185  0.00  0.00    -0.457 OA
ATOM      8  C   UNL     1       5.393  23.926  13.446  0.00  0.00    +0.180 C 
ATOM      9  C   UNL     1       3.991  23.964  12.902  0.00  0.00    +0.052 C 
ATOM     10  C   UNL     1       5.666  25.056  14.452  0.00  0.00    +0.049 C 
ATOM     11  C   UNL     1       5.443  26.425  13.816  0.00  0.00    +0.015 C 
ATOM     12  C   UNL     1       7.113  24.932  14.953  0.00  0.00    -0.017 C 
ATOM     13  C   UNL     1       7.501  25.115  16.217  0.00  0.00    +0.045 C 
ATOM     14  C   UNL     1       6.581  25.401  17.413  0.00  0.00    +0.187 C 
ATOM     15  O   UNL     1       5.451  25.764  17.325  0.00  0.00    -0.290 OA
ATOM     16  C   UNL     1       7.183  25.015  18.791  0.00  0.00    +0.213 C 
ATOM     17  C   UNL     1       7.447  23.495  18.751  0.00  0.00    +0.154 C 
ATOM     18  C   UNL     1       6.180  22.629  18.765  0.00  0.00    +0.061 C 
ATOM     19  C   UNL     1       6.411  21.421  17.841  0.00  0.00    -0.024 C 
ATOM     20  C   UNL     1       5.982  21.431  16.576  0.00  0.00    +0.005 C 
ATOM     21  C   UNL     1       6.264  20.235  15.657  0.00  0.00    -0.006 A 
ATOM     22  C   UNL     1       6.511  19.018  16.260  0.00  0.00    +0.032 A 
ENDROOT
BRANCH   1  23
ATOM     23  N   UNL     1       7.038  16.632  16.190  0.00  0.00    -0.344 N 
ATOM     24  H   UNL     1       7.098  15.892  15.740  0.00  0.00    +0.146 HD
BRANCH  23  26
ATOM     25  C   UNL     1       6.834  15.219  18.132  0.00  0.00    +0.024 C 
ATOM     26  C   UNL     1       7.184  16.626  17.635  0.00  0.00    +0.098 C 
ENDBRANCH  23  26
ENDBRANCH   1  23
BRANCH   3  27
ATOM     27  O   UNL     1       6.655  19.258  12.108  0.00  0.00    -0.506 OA
ATOM     28  H   UNL     1       5.912  19.004  11.784  0.00  0.00    +0.292 HD
ENDBRANCH   3  27
BRANCH  16  29
ATOM     29  O   UNL     1       6.324  25.370  19.805  0.00  0.00    -0.381 OA
ATOM     30  H   UNL     1       6.718  25.900  20.340  0.00  0.00    +0.210 HD
ENDBRANCH  16  29
BRANCH  17  31
ATOM     31  O   UNL     1       8.234  23.119  19.844  0.00  0.00    -0.388 OA
ATOM     32  H   UNL     1       8.269  22.271  19.888  0.00  0.00    +0.210 HD
ENDBRANCH  17  31
TORSDOF 5
ENDMDL
MODEL 7
REMARK VINA RESULT:      -8.2      3.229      8.299
REMARK  Name = 6I1S_E26.pdb
REMARK  8 active torsions:
REMARK  status: ('A' for Active; 'I' for Inactive)
REMARK    1  A    between atoms: _1  and  _2
REMARK    2  A    between atoms: _2  and  _3
REMARK    3  A    between atoms: _3  and  _4
REMARK    4  A    between atoms: _10  and  _28
REMARK    5  A    between atoms: _11  and  _27
REMARK    6  A    between atoms: _15  and  _16
REMARK    7  A    between atoms: _17  and  _18
REMARK    8  A    between atoms: _22  and  _24
REMARK                            x       y       z     vdW  Elec       q    Type
REMARK                         _______ _______ _______ _____ _____    ______ ____
ROOT
ATOM      1  C   UNL     1       6.752  19.180  17.347  0.00  0.00    +0.031 A 
ATOM      2  C   UNL     1       6.847  18.379  16.215  0.00  0.00    +0.069 A 
ATOM      3  C   UNL     1       6.656  18.959  14.969  0.00  0.00    +0.133 A 
ATOM      4  C   UNL     1       6.360  20.324  14.841  0.00  0.00    +0.107 A 
ATOM      5  C   UNL     1       6.155  20.862  13.422  0.00  0.00    +0.344 C 
ATOM      6  O   UNL     1       6.297  20.174  12.461  0.00  0.00    -0.245 OA
ATOM      7  O   UNL     1       5.744  22.194  13.279  0.00  0.00    -0.457 OA
ATOM      8  C   UNL     1       5.534  22.674  11.959  0.00  0.00    +0.180 C 
ATOM      9  C   UNL     1       4.150  22.366  11.457  0.00  0.00    +0.052 C 
ATOM     10  C   UNL     1       5.799  24.184  12.067  0.00  0.00    +0.049 C 
ATOM     11  C   UNL     1       5.623  24.872  10.718  0.00  0.00    +0.015 C 
ATOM     12  C   UNL     1       7.228  24.398  12.590  0.00  0.00    -0.017 C 
ATOM     13  C   UNL     1       7.581  25.321  13.488  0.00  0.00    +0.045 C 
ATOM     14  C   UNL     1       6.632  26.279  14.223  0.00  0.00    +0.187 C 
ATOM     15  O   UNL     1       5.512  26.509  13.890  0.00  0.00    -0.290 OA
ATOM     16  C   UNL     1       7.185  26.823  15.567  0.00  0.00    +0.213 C 
ATOM     17  C   UNL     1       7.420  25.600  16.479  0.00  0.00    +0.154 C 
ATOM     18  C   UNL     1       6.136  24.922  16.977  0.00  0.00    +0.061 C 
ATOM     19  C   UNL     1       6.370  23.402  16.999  0.00  0.00    -0.024 C 
ATOM     20  C   UNL     1       5.979  22.632  15.980  0.00  0.00    +0.005 C 
ATOM     21  C   UNL     1       6.265  21.123  16.000  0.00  0.00    -0.006 A 
ATOM     22  C   UNL     1       6.470  20.535  17.232  0.00  0.00    +0.032 A 
ENDROOT
BRANCH   1  23
ATOM     23  N   UNL     1       6.952  18.611  18.662  0.00  0.00    -0.344 N 
ATOM     24  H   UNL     1       6.945  19.120  19.366  0.00  0.00    +0.146 HD
BRANCH  23  26
ATOM     25  C   UNL     1       7.947  16.943  20.089  0.00  0.00    +0.024 C 
ATOM     26  C   UNL     1       7.164  17.181  18.793  0.00  0.00    +0.098 C 
ENDBRANCH  23  26
ENDBRANCH   1  23
BRANCH   3  27
ATOM     27  O   UNL     1       6.743  18.172  13.817  0.00  0.00    -0.506 OA
ATOM     28  H   UNL     1       6.171  18.438  13.248  0.00  0.00    +0.292 HD
ENDBRANCH   3  27
BRANCH  16  29
ATOM     29  O   UNL     1       6.303  27.724  16.118  0.00  0.00    -0.381 OA
ATOM     30  H   UNL     1       5.513  27.414  16.072  0.00  0.00    +0.210 HD
ENDBRANCH  16  29
BRANCH  17  31
ATOM     31  O   UNL     1       8.167  25.977  17.599  0.00  0.00    -0.388 OA
ATOM     32  H   UNL     1       8.783  26.512  17.361  0.00  0.00    +0.210 HD
ENDBRANCH  17  31
TORSDOF 5
ENDMDL
MODEL 8
REMARK VINA RESULT:      -8.1     10.652     13.885
REMARK  Name = 6I1S_E26.pdb
REMARK  8 active torsions:
REMARK  status: ('A' for Active; 'I' for Inactive)
REMARK    1  A    between atoms: _1  and  _2
REMARK    2  A    between atoms: _2  and  _3
REMARK    3  A    between atoms: _3  and  _4
REMARK    4  A    between atoms: _10  and  _28
REMARK    5  A    between atoms: _11  and  _27
REMARK    6  A    between atoms: _15  and  _16
REMARK    7  A    between atoms: _17  and  _18
REMARK    8  A    between atoms: _22  and  _24
REMARK                            x       y       z     vdW  Elec       q    Type
REMARK                         _______ _______ _______ _____ _____    ______ ____
ROOT
ATOM      1  C   UNL     1      13.170  20.104  25.596  0.00  0.00    +0.031 A 
ATOM      2  C   UNL     1      13.836  19.195  26.411  0.00  0.00    +0.069 A 
ATOM      3  C   UNL     1      13.273  17.943  26.612  0.00  0.00    +0.133 A 
ATOM      4  C   UNL     1      12.051  17.593  26.021  0.00  0.00    +0.107 A 
ATOM      5  C   UNL     1      11.511  16.191  26.317  0.00  0.00    +0.344 C 
ATOM      6  O   UNL     1      12.122  15.405  26.970  0.00  0.00    -0.245 OA
ATOM      7  O   UNL     1      10.238  15.863  25.832  0.00  0.00    -0.457 OA
ATOM      8  C   UNL     1       9.738  14.568  26.134  0.00  0.00    +0.180 C 
ATOM      9  C   UNL     1       9.059  14.521  27.476  0.00  0.00    +0.052 C 
ATOM     10  C   UNL     1       8.775  14.263  24.975  0.00  0.00    +0.049 C 
ATOM     11  C   UNL     1       8.141  12.885  25.135  0.00  0.00    +0.015 C 
ATOM     12  C   UNL     1       9.554  14.340  23.653  0.00  0.00    -0.017 C 
ATOM     13  C   UNL     1       9.092  14.886  22.526  0.00  0.00    +0.045 C 
ATOM     14  C   UNL     1       7.746  15.605  22.355  0.00  0.00    +0.187 C 
ATOM     15  O   UNL     1       6.836  15.528  23.119  0.00  0.00    -0.290 OA
ATOM     16  C   UNL     1       7.700  16.605  21.169  0.00  0.00    +0.213 C 
ATOM     17  C   UNL     1       8.776  17.676  21.448  0.00  0.00    +0.154 C 
ATOM     18  C   UNL     1       8.441  18.627  22.606  0.00  0.00    +0.061 C 
ATOM     19  C   UNL     1       9.740  18.928  23.373  0.00  0.00    -0.024 C 
ATOM     20  C   UNL     1      10.063  18.243  24.474  0.00  0.00    +0.005 C 
ATOM     21  C   UNL     1      11.386  18.527  25.198  0.00  0.00    -0.006 A 
ATOM     22  C   UNL     1      11.964  19.765  24.997  0.00  0.00    +0.032 A 
ENDROOT
BRANCH   1  23
ATOM     23  N   UNL     1      13.730  21.417  25.358  0.00  0.00    -0.344 N 
ATOM     24  H   UNL     1      14.540  21.501  25.057  0.00  0.00    +0.146 HD
BRANCH  23  26
ATOM     25  C   UNL     1      12.548  22.569  27.115  0.00  0.00    +0.024 C 
ATOM     26  C   UNL     1      12.922  22.593  25.629  0.00  0.00    +0.098 C 
ENDBRANCH  23  26
ENDBRANCH   1  23
BRANCH   3  27
ATOM     27  O   UNL     1      13.923  17.015  27.430  0.00  0.00    -0.506 OA
ATOM     28  H   UNL     1      14.739  17.235  27.516  0.00  0.00    +0.292 HD
ENDBRANCH   3  27
BRANCH  16  29
ATOM     29  O   UNL     1       6.442  17.147  21.047  0.00  0.00    -0.381 OA
ATOM     30  H   UNL     1       6.111  17.274  21.820  0.00  0.00    +0.210 HD
ENDBRANCH  16  29
BRANCH  17  31
ATOM     31  O   UNL     1       8.983  18.453  20.304  0.00  0.00    -0.388 OA
ATOM     32  H   UNL     1       8.332  18.347  19.768  0.00  0.00    +0.210 HD
ENDBRANCH  17  31
TORSDOF 5
ENDMDL
MODEL 9
REMARK VINA RESULT:      -8.0      4.525      8.487
REMARK  Name = 6I1S_E26.pdb
REMARK  8 active torsions:
REMARK  status: ('A' for Active; 'I' for Inactive)
REMARK    1  A    between atoms: _1  and  _2
REMARK    2  A    between atoms: _2  and  _3
REMARK    3  A    between atoms: _3  and  _4
REMARK    4  A    between atoms: _10  and  _28
REMARK    5  A    between atoms: _11  and  _27
REMARK    6  A    between atoms: _15  and  _16
REMARK    7  A    between atoms: _17  and  _18
REMARK    8  A    between atoms: _22  and  _24
REMARK                            x       y       z     vdW  Elec       q    Type
REMARK                         _______ _______ _______ _____ _____    ______ ____
ROOT
ATOM      1  C   UNL     1      12.330  21.628  20.144  0.00  0.00    +0.031 A 
ATOM      2  C   UNL     1      11.482  20.851  20.923  0.00  0.00    +0.069 A 
ATOM      3  C   UNL     1      10.154  21.234  21.050  0.00  0.00    +0.133 A 
ATOM      4  C   UNL     1       9.668  22.388  20.419  0.00  0.00    +0.107 A 
ATOM      5  C   UNL     1       8.191  22.729  20.632  0.00  0.00    +0.344 C 
ATOM      6  O   UNL     1       7.464  22.021  21.255  0.00  0.00    -0.245 OA
ATOM      7  O   UNL     1       7.714  23.938  20.108  0.00  0.00    -0.457 OA
ATOM      8  C   UNL     1       6.348  24.254  20.334  0.00  0.00    +0.180 C 
ATOM      9  C   UNL     1       6.135  24.934  21.659  0.00  0.00    +0.052 C 
ATOM     10  C   UNL     1       5.974  25.151  19.144  0.00  0.00    +0.049 C 
ATOM     11  C   UNL     1       4.514  25.587  19.221  0.00  0.00    +0.015 C 
ATOM     12  C   UNL     1       6.229  24.376  17.842  0.00  0.00    -0.017 C 
ATOM     13  C   UNL     1       6.764  24.898  16.736  0.00  0.00    +0.045 C 
ATOM     14  C   UNL     1       7.296  26.330  16.577  0.00  0.00    +0.187 C 
ATOM     15  O   UNL     1       7.052  27.228  17.319  0.00  0.00    -0.290 OA
ATOM     16  C   UNL     1       8.341  26.503  15.443  0.00  0.00    +0.213 C 
ATOM     17  C   UNL     1       9.536  25.592  15.796  0.00  0.00    +0.154 C 
ATOM     18  C   UNL     1      10.367  26.070  16.995  0.00  0.00    +0.061 C 
ATOM     19  C   UNL     1      10.806  24.835  17.801  0.00  0.00    -0.024 C 
ATOM     20  C   UNL     1      10.116  24.431  18.871  0.00  0.00    +0.005 C 
ATOM     21  C   UNL     1      10.543  23.168  19.632  0.00  0.00    -0.006 A 
ATOM     22  C   UNL     1      11.858  22.768  19.506  0.00  0.00    +0.032 A 
ENDROOT
BRANCH   1  23
ATOM     23  N   UNL     1      13.719  21.257  19.983  0.00  0.00    -0.344 N 
ATOM     24  H   UNL     1      13.937  20.430  19.829  0.00  0.00    +0.146 HD
BRANCH  23  26
ATOM     25  C   UNL     1      14.993  22.545  21.573  0.00  0.00    +0.024 C 
ATOM     26  C   UNL     1      14.745  22.280  20.084  0.00  0.00    +0.098 C 
ENDBRANCH  23  26
ENDBRANCH   1  23
BRANCH   3  27
ATOM     27  O   UNL     1       9.283  20.469  21.830  0.00  0.00    -0.506 OA
ATOM     28  H   UNL     1       9.446  19.644  21.710  0.00  0.00    +0.292 HD
ENDBRANCH   3  27
BRANCH  16  29
ATOM     29  O   UNL     1       8.708  27.824  15.327  0.00  0.00    -0.381 OA
ATOM     30  H   UNL     1       8.033  28.287  15.099  0.00  0.00    +0.210 HD
ENDBRANCH  16  29
BRANCH  17  31
ATOM     31  O   UNL     1      10.394  25.483  14.698  0.00  0.00    -0.388 OA
ATOM     32  H   UNL     1      11.059  26.002  14.806  0.00  0.00    +0.210 HD
ENDBRANCH  17  31
TORSDOF 5
ENDMDL
