MODEL 1
REMARK VINA RESULT:      -6.2      0.000      0.000
REMARK  Name = 4DYM_IYZ.pdb
REMARK  4 active torsions:
REMARK  status: ('A' for Active; 'I' for Inactive)
REMARK    1  A    between atoms: _11  and  _18
REMARK    2  A    between atoms: _11  and  _21
REMARK    3  A    between atoms: _12  and  _13
REMARK    4  A    between atoms: _14  and  _16
REMARK                            x       y       z     vdW  Elec       q    Type
REMARK                         _______ _______ _______ _____ _____    ______ ____
ROOT
ATOM      1  C   UNL     1      12.052  16.980  27.451  0.00  0.00    +0.104 A 
ATOM      2  N   UNL     1      10.777  16.551  27.076  0.00  0.00    -0.210 N 
ATOM      3  N   UNL     1      10.067  15.599  27.438  0.00  0.00    -0.147 NA
ATOM      4  C   UNL     1       8.819  15.371  26.961  0.00  0.00    +0.168 A 
ATOM      5  N   UNL     1       8.133  14.277  27.379  0.00  0.00    -0.219 NA
ATOM      6  C   UNL     1       8.262  16.264  26.035  0.00  0.00    +0.041 A 
ATOM      7  C   UNL     1       9.022  17.342  25.645  0.00  0.00    +0.042 A 
ATOM      8  C   UNL     1      10.304  17.494  26.165  0.00  0.00    +0.164 A 
ATOM      9  N   UNL     1      11.279  18.391  25.973  0.00  0.00    -0.223 NA
ATOM     10  C   UNL     1      12.320  18.110  26.768  0.00  0.00    +0.120 A 
ENDROOT
BRANCH   1  13
ATOM     11  C   UNL     1      14.126  16.356  30.455  0.00  0.00    +0.035 A 
ATOM     12  C   UNL     1      13.342  16.982  29.502  0.00  0.00    +0.004 A 
ATOM     13  C   UNL     1      12.821  16.302  28.396  0.00  0.00    +0.019 A 
ATOM     14  C   UNL     1      13.150  14.950  28.212  0.00  0.00    +0.002 A 
ATOM     15  C   UNL     1      13.958  14.304  29.167  0.00  0.00    +0.000 A 
ATOM     16  C   UNL     1      14.435  15.012  30.292  0.00  0.00    +0.003 A 
BRANCH  11  18
ATOM     17  C   UNL     1      16.088  17.150  32.077  0.00  0.00    +0.077 C 
ATOM     18  C   UNL     1      14.612  17.174  31.697  0.00  0.00    +0.173 C 
ATOM     19  O   UNL     1      13.846  17.889  32.348  0.00  0.00    -0.291 OA
ENDBRANCH  11  18
ENDBRANCH   1  13
BRANCH   5  20
ATOM     20  C   UNL     1       8.458  13.579  28.626  0.00  0.00    +0.114 C 
BRANCH  20  21
ATOM     21  C   UNL     1       7.205  13.232  29.458  0.00  0.00    +0.022 C 
ATOM     22  C   UNL     1       7.068  11.785  29.951  0.00  0.00    +0.002 C 
ATOM     23  C   UNL     1       7.494  12.863  30.933  0.00  0.00    +0.002 C 
ENDBRANCH  20  21
ENDBRANCH   5  20
TORSDOF 4
ENDMDL
MODEL 2
REMARK VINA RESULT:      -6.1      3.186      5.968
REMARK  Name = 4DYM_IYZ.pdb
REMARK  4 active torsions:
REMARK  status: ('A' for Active; 'I' for Inactive)
REMARK    1  A    between atoms: _11  and  _18
REMARK    2  A    between atoms: _11  and  _21
REMARK    3  A    between atoms: _12  and  _13
REMARK    4  A    between atoms: _14  and  _16
REMARK                            x       y       z     vdW  Elec       q    Type
REMARK                         _______ _______ _______ _____ _____    ______ ____
ROOT
ATOM      1  C   UNL     1      12.224  17.967  25.993  0.00  0.00    +0.104 A 
ATOM      2  N   UNL     1      12.398  17.157  27.116  0.00  0.00    -0.210 N 
ATOM      3  N   UNL     1      11.809  16.144  27.526  0.00  0.00    -0.147 NA
ATOM      4  C   UNL     1      12.161  15.474  28.650  0.00  0.00    +0.168 A 
ATOM      5  N   UNL     1      11.428  14.403  29.047  0.00  0.00    -0.219 NA
ATOM      6  C   UNL     1      13.271  15.905  29.389  0.00  0.00    +0.041 A 
ATOM      7  C   UNL     1      13.956  17.008  28.934  0.00  0.00    +0.042 A 
ATOM      8  C   UNL     1      13.518  17.653  27.782  0.00  0.00    +0.164 A 
ATOM      9  N   UNL     1      13.935  18.736  27.114  0.00  0.00    -0.223 NA
ATOM     10  C   UNL     1      13.185  18.912  26.018  0.00  0.00    +0.120 A 
ENDROOT
BRANCH   1  13
ATOM     11  C   UNL     1       9.926  16.162  23.718  0.00  0.00    +0.035 A 
ATOM     12  C   UNL     1      10.902  16.435  24.660  0.00  0.00    +0.004 A 
ATOM     13  C   UNL     1      11.219  17.739  25.054  0.00  0.00    +0.019 A 
ATOM     14  C   UNL     1      10.565  18.815  24.433  0.00  0.00    +0.002 A 
ATOM     15  C   UNL     1       9.578  18.552  23.464  0.00  0.00    +0.000 A 
ATOM     16  C   UNL     1       9.257  17.220  23.118  0.00  0.00    +0.003 A 
BRANCH  11  18
ATOM     17  C   UNL     1      10.399  13.557  24.037  0.00  0.00    +0.077 C 
ATOM     18  C   UNL     1       9.587  14.671  23.385  0.00  0.00    +0.173 C 
ATOM     19  O   UNL     1       8.642  14.363  22.654  0.00  0.00    -0.291 OA
ENDBRANCH  11  18
ENDBRANCH   1  13
BRANCH   5  20
ATOM     20  C   UNL     1      10.568  13.657  28.124  0.00  0.00    +0.114 C 
BRANCH  20  21
ATOM     21  C   UNL     1       9.078  14.040  28.258  0.00  0.00    +0.022 C 
ATOM     22  C   UNL     1       8.497  14.979  27.192  0.00  0.00    +0.002 C 
ATOM     23  C   UNL     1       8.171  13.496  27.128  0.00  0.00    +0.002 C 
ENDBRANCH  20  21
ENDBRANCH   5  20
TORSDOF 4
ENDMDL
MODEL 3
REMARK VINA RESULT:      -6.1      2.072      2.892
REMARK  Name = 4DYM_IYZ.pdb
REMARK  4 active torsions:
REMARK  status: ('A' for Active; 'I' for Inactive)
REMARK    1  A    between atoms: _11  and  _18
REMARK    2  A    between atoms: _11  and  _21
REMARK    3  A    between atoms: _12  and  _13
REMARK    4  A    between atoms: _14  and  _16
REMARK                            x       y       z     vdW  Elec       q    Type
REMARK                         _______ _______ _______ _____ _____    ______ ____
ROOT
ATOM      1  C   UNL     1      10.983  16.452  25.446  0.00  0.00    +0.104 A 
ATOM      2  N   UNL     1      10.125  15.360  25.303  0.00  0.00    -0.210 N 
ATOM      3  N   UNL     1       9.446  14.708  26.112  0.00  0.00    -0.147 NA
ATOM      4  C   UNL     1       8.638  13.680  25.757  0.00  0.00    +0.168 A 
ATOM      5  N   UNL     1       7.969  12.993  26.716  0.00  0.00    -0.219 NA
ATOM      6  C   UNL     1       8.516  13.336  24.403  0.00  0.00    +0.041 A 
ATOM      7  C   UNL     1       9.237  14.067  23.488  0.00  0.00    +0.042 A 
ATOM      8  C   UNL     1      10.061  15.095  23.935  0.00  0.00    +0.164 A 
ATOM      9  N   UNL     1      10.889  15.950  23.322  0.00  0.00    -0.223 NA
ATOM     10  C   UNL     1      11.421  16.792  24.218  0.00  0.00    +0.120 A 
ENDROOT
BRANCH   1  13
ATOM     11  C   UNL     1      12.438  16.962  28.813  0.00  0.00    +0.035 A 
ATOM     12  C   UNL     1      12.154  16.431  27.567  0.00  0.00    +0.004 A 
ATOM     13  C   UNL     1      11.253  17.034  26.684  0.00  0.00    +0.019 A 
ATOM     14  C   UNL     1      10.567  18.189  27.094  0.00  0.00    +0.002 A 
ATOM     15  C   UNL     1      10.837  18.733  28.364  0.00  0.00    +0.000 A 
ATOM     16  C   UNL     1      11.782  18.118  29.216  0.00  0.00    +0.003 A 
BRANCH  11  18
ATOM     17  C   UNL     1      14.209  17.062  30.803  0.00  0.00    +0.077 C 
ATOM     18  C   UNL     1      13.510  16.261  29.711  0.00  0.00    +0.173 C 
ATOM     19  O   UNL     1      13.768  15.059  29.603  0.00  0.00    -0.291 OA
ENDBRANCH  11  18
ENDBRANCH   1  13
BRANCH   5  20
ATOM     20  C   UNL     1       7.708  13.555  28.045  0.00  0.00    +0.114 C 
BRANCH  20  21
ATOM     21  C   UNL     1       6.759  12.677  28.888  0.00  0.00    +0.022 C 
ATOM     22  C   UNL     1       7.390  11.531  29.690  0.00  0.00    +0.002 C 
ATOM     23  C   UNL     1       6.963  12.795  30.418  0.00  0.00    +0.002 C 
ENDBRANCH  20  21
ENDBRANCH   5  20
TORSDOF 4
ENDMDL
MODEL 4
REMARK VINA RESULT:      -6.0      2.980      5.974
REMARK  Name = 4DYM_IYZ.pdb
REMARK  4 active torsions:
REMARK  status: ('A' for Active; 'I' for Inactive)
REMARK    1  A    between atoms: _11  and  _18
REMARK    2  A    between atoms: _11  and  _21
REMARK    3  A    between atoms: _12  and  _13
REMARK    4  A    between atoms: _14  and  _16
REMARK                            x       y       z     vdW  Elec       q    Type
REMARK                         _______ _______ _______ _____ _____    ______ ____
ROOT
ATOM      1  C   UNL     1      11.642  16.702  26.937  0.00  0.00    +0.104 A 
ATOM      2  N   UNL     1      11.871  15.742  27.924  0.00  0.00    -0.210 N 
ATOM      3  N   UNL     1      11.193  14.795  28.354  0.00  0.00    -0.147 NA
ATOM      4  C   UNL     1      11.620  13.943  29.319  0.00  0.00    +0.168 A 
ATOM      5  N   UNL     1      10.791  12.964  29.760  0.00  0.00    -0.219 NA
ATOM      6  C   UNL     1      12.907  14.096  29.851  0.00  0.00    +0.041 A 
ATOM      7  C   UNL     1      13.685  15.121  29.365  0.00  0.00    +0.042 A 
ATOM      8  C   UNL     1      13.166  15.966  28.389  0.00  0.00    +0.164 A 
ATOM      9  N   UNL     1      13.642  17.041  27.749  0.00  0.00    -0.223 NA
ATOM     10  C   UNL     1      12.746  17.469  26.849  0.00  0.00    +0.120 A 
ENDROOT
BRANCH   1  13
ATOM     11  C   UNL     1       9.319  16.627  24.054  0.00  0.00    +0.035 A 
ATOM     12  C   UNL     1      10.468  16.563  24.822  0.00  0.00    +0.004 A 
ATOM     13  C   UNL     1      10.455  16.756  26.207  0.00  0.00    +0.019 A 
ATOM     14  C   UNL     1       9.244  17.082  26.838  0.00  0.00    +0.002 A 
ATOM     15  C   UNL     1       8.069  17.163  26.067  0.00  0.00    +0.000 A 
ATOM     16  C   UNL     1       8.112  16.924  24.675  0.00  0.00    +0.003 A 
BRANCH  11  18
ATOM     17  C   UNL     1       8.227  15.684  21.812  0.00  0.00    +0.077 C 
ATOM     18  C   UNL     1       9.412  16.332  22.521  0.00  0.00    +0.173 C 
ATOM     19  O   UNL     1      10.394  16.659  21.850  0.00  0.00    -0.291 OA
ENDBRANCH  11  18
ENDBRANCH   1  13
BRANCH   5  20
ATOM     20  C   UNL     1       9.652  12.486  28.970  0.00  0.00    +0.114 C 
BRANCH  20  21
ATOM     21  C   UNL     1       8.336  13.211  29.323  0.00  0.00    +0.022 C 
ATOM     22  C   UNL     1       7.637  13.985  28.197  0.00  0.00    +0.002 C 
ATOM     23  C   UNL     1       7.079  12.637  28.625  0.00  0.00    +0.002 C 
ENDBRANCH  20  21
ENDBRANCH   5  20
TORSDOF 4
ENDMDL
MODEL 5
REMARK VINA RESULT:      -5.9      4.963      6.905
REMARK  Name = 4DYM_IYZ.pdb
REMARK  4 active torsions:
REMARK  status: ('A' for Active; 'I' for Inactive)
REMARK    1  A    between atoms: _11  and  _18
REMARK    2  A    between atoms: _11  and  _21
REMARK    3  A    between atoms: _12  and  _13
REMARK    4  A    between atoms: _14  and  _16
REMARK                            x       y       z     vdW  Elec       q    Type
REMARK                         _______ _______ _______ _____ _____    ______ ____
ROOT
ATOM      1  C   UNL     1       8.933  17.434  23.052  0.00  0.00    +0.104 A 
ATOM      2  N   UNL     1       8.322  16.848  21.942  0.00  0.00    -0.210 N 
ATOM      3  N   UNL     1       7.785  15.744  21.759  0.00  0.00    -0.147 NA
ATOM      4  C   UNL     1       7.212  15.372  20.589  0.00  0.00    +0.168 A 
ATOM      5  N   UNL     1       6.691  14.125  20.465  0.00  0.00    -0.219 NA
ATOM      6  C   UNL     1       7.175  16.280  19.522  0.00  0.00    +0.041 A 
ATOM      7  C   UNL     1       7.737  17.521  19.715  0.00  0.00    +0.042 A 
ATOM      8  C   UNL     1       8.326  17.818  20.940  0.00  0.00    +0.164 A 
ATOM      9  N   UNL     1       8.964  18.891  21.424  0.00  0.00    -0.223 NA
ATOM     10  C   UNL     1       9.301  18.683  22.704  0.00  0.00    +0.120 A 
ENDROOT
BRANCH   1  13
ATOM     11  C   UNL     1      10.144  15.034  25.598  0.00  0.00    +0.035 A 
ATOM     12  C   UNL     1       9.992  15.733  24.414  0.00  0.00    +0.004 A 
ATOM     13  C   UNL     1       9.065  16.771  24.271  0.00  0.00    +0.019 A 
ATOM     14  C   UNL     1       8.218  17.080  25.348  0.00  0.00    +0.002 A 
ATOM     15  C   UNL     1       8.354  16.368  26.554  0.00  0.00    +0.000 A 
ATOM     16  C   UNL     1       9.328  15.351  26.676  0.00  0.00    +0.003 A 
BRANCH  11  18
ATOM     17  C   UNL     1      11.612  13.126  24.451  0.00  0.00    +0.077 C 
ATOM     18  C   UNL     1      11.252  13.933  25.693  0.00  0.00    +0.173 C 
ATOM     19  O   UNL     1      11.888  13.734  26.731  0.00  0.00    -0.291 OA
ENDBRANCH  11  18
ENDBRANCH   1  13
BRANCH   5  20
ATOM     20  C   UNL     1       6.309  13.317  21.627  0.00  0.00    +0.114 C 
BRANCH  20  21
ATOM     21  C   UNL     1       4.840  13.537  22.047  0.00  0.00    +0.022 C 
ATOM     22  C   UNL     1       3.783  13.528  20.934  0.00  0.00    +0.002 C 
ATOM     23  C   UNL     1       3.920  12.310  21.833  0.00  0.00    +0.002 C 
ENDBRANCH  20  21
ENDBRANCH   5  20
TORSDOF 4
ENDMDL
MODEL 6
REMARK VINA RESULT:      -5.9      2.936      5.876
REMARK  Name = 4DYM_IYZ.pdb
REMARK  4 active torsions:
REMARK  status: ('A' for Active; 'I' for Inactive)
REMARK    1  A    between atoms: _11  and  _18
REMARK    2  A    between atoms: _11  and  _21
REMARK    3  A    between atoms: _12  and  _13
REMARK    4  A    between atoms: _14  and  _16
REMARK                            x       y       z     vdW  Elec       q    Type
REMARK                         _______ _______ _______ _____ _____    ______ ____
ROOT
ATOM      1  C   UNL     1      11.898  15.224  28.013  0.00  0.00    +0.104 A 
ATOM      2  N   UNL     1      12.158  16.309  27.174  0.00  0.00    -0.210 N 
ATOM      3  N   UNL     1      11.724  16.637  26.058  0.00  0.00    -0.147 NA
ATOM      4  C   UNL     1      12.091  17.770  25.413  0.00  0.00    +0.168 A 
ATOM      5  N   UNL     1      11.600  18.023  24.173  0.00  0.00    -0.219 NA
ATOM      6  C   UNL     1      12.980  18.658  26.034  0.00  0.00    +0.041 A 
ATOM      7  C   UNL     1      13.449  18.328  27.284  0.00  0.00    +0.042 A 
ATOM      8  C   UNL     1      13.040  17.134  27.870  0.00  0.00    +0.164 A 
ATOM      9  N   UNL     1      13.327  16.528  29.029  0.00  0.00    -0.223 NA
ATOM     10  C   UNL     1      12.618  15.396  29.139  0.00  0.00    +0.120 A 
ENDROOT
BRANCH   1  13
ATOM     11  C   UNL     1       8.911  13.035  28.072  0.00  0.00    +0.035 A 
ATOM     12  C   UNL     1       9.813  14.043  28.368  0.00  0.00    +0.004 A 
ATOM     13  C   UNL     1      11.010  14.206  27.666  0.00  0.00    +0.019 A 
ATOM     14  C   UNL     1      11.341  13.283  26.660  0.00  0.00    +0.002 A 
ATOM     15  C   UNL     1      10.439  12.246  26.357  0.00  0.00    +0.000 A 
ATOM     16  C   UNL     1       9.219  12.134  27.062  0.00  0.00    +0.003 A 
BRANCH  11  18
ATOM     17  C   UNL     1       7.586  13.033  30.386  0.00  0.00    +0.077 C 
ATOM     18  C   UNL     1       7.563  12.965  28.863  0.00  0.00    +0.173 C 
ATOM     19  O   UNL     1       6.472  12.915  28.290  0.00  0.00    -0.291 OA
ENDBRANCH  11  18
ENDBRANCH   1  13
BRANCH   5  20
ATOM     20  C   UNL     1      10.375  17.394  23.673  0.00  0.00    +0.114 C 
BRANCH  20  21
ATOM     21  C   UNL     1       9.096  18.055  24.231  0.00  0.00    +0.022 C 
ATOM     22  C   UNL     1       7.751  17.456  23.798  0.00  0.00    +0.002 C 
ATOM     23  C   UNL     1       8.277  17.159  25.193  0.00  0.00    +0.002 C 
ENDBRANCH  20  21
ENDBRANCH   5  20
TORSDOF 4
ENDMDL
MODEL 7
REMARK VINA RESULT:      -5.9      1.938      3.085
REMARK  Name = 4DYM_IYZ.pdb
REMARK  4 active torsions:
REMARK  status: ('A' for Active; 'I' for Inactive)
REMARK    1  A    between atoms: _11  and  _18
REMARK    2  A    between atoms: _11  and  _21
REMARK    3  A    between atoms: _12  and  _13
REMARK    4  A    between atoms: _14  and  _16
REMARK                            x       y       z     vdW  Elec       q    Type
REMARK                         _______ _______ _______ _____ _____    ______ ____
ROOT
ATOM      1  C   UNL     1      10.958  17.965  25.020  0.00  0.00    +0.104 A 
ATOM      2  N   UNL     1      10.194  16.804  24.891  0.00  0.00    -0.210 N 
ATOM      3  N   UNL     1      10.266  15.683  25.420  0.00  0.00    -0.147 NA
ATOM      4  C   UNL     1       9.389  14.680  25.174  0.00  0.00    +0.168 A 
ATOM      5  N   UNL     1       9.573  13.472  25.763  0.00  0.00    -0.219 NA
ATOM      6  C   UNL     1       8.310  14.906  24.308  0.00  0.00    +0.041 A 
ATOM      7  C   UNL     1       8.196  16.152  23.736  0.00  0.00    +0.042 A 
ATOM      8  C   UNL     1       9.151  17.122  24.022  0.00  0.00    +0.164 A 
ATOM      9  N   UNL     1       9.336  18.385  23.619  0.00  0.00    -0.223 NA
ATOM     10  C   UNL     1      10.399  18.911  24.240  0.00  0.00    +0.120 A 
ENDROOT
BRANCH   1  13
ATOM     11  C   UNL     1      13.126  17.487  27.985  0.00  0.00    +0.035 A 
ATOM     12  C   UNL     1      12.053  17.423  27.113  0.00  0.00    +0.004 A 
ATOM     13  C   UNL     1      12.071  18.040  25.858  0.00  0.00    +0.019 A 
ATOM     14  C   UNL     1      13.192  18.799  25.488  0.00  0.00    +0.002 A 
ATOM     15  C   UNL     1      14.286  18.883  26.371  0.00  0.00    +0.000 A 
ATOM     16  C   UNL     1      14.249  18.215  27.616  0.00  0.00    +0.003 A 
BRANCH  11  18
ATOM     17  C   UNL     1      12.950  15.190  29.327  0.00  0.00    +0.077 C 
ATOM     18  C   UNL     1      13.049  16.711  29.342  0.00  0.00    +0.173 C 
ATOM     19  O   UNL     1      13.126  17.288  30.429  0.00  0.00    -0.291 OA
ENDBRANCH  11  18
ENDBRANCH   1  13
BRANCH   5  20
ATOM     20  C   UNL     1      10.382  13.305  26.974  0.00  0.00    +0.114 C 
BRANCH  20  21
ATOM     21  C   UNL     1       9.697  13.881  28.231  0.00  0.00    +0.022 C 
ATOM     22  C   UNL     1       8.299  13.350  28.574  0.00  0.00    +0.002 C 
ATOM     23  C   UNL     1       9.493  12.860  29.377  0.00  0.00    +0.002 C 
ENDBRANCH  20  21
ENDBRANCH   5  20
TORSDOF 4
ENDMDL
MODEL 8
REMARK VINA RESULT:      -5.8      3.498      6.329
REMARK  Name = 4DYM_IYZ.pdb
REMARK  4 active torsions:
REMARK  status: ('A' for Active; 'I' for Inactive)
REMARK    1  A    between atoms: _11  and  _18
REMARK    2  A    between atoms: _11  and  _21
REMARK    3  A    between atoms: _12  and  _13
REMARK    4  A    between atoms: _14  and  _16
REMARK                            x       y       z     vdW  Elec       q    Type
REMARK                         _______ _______ _______ _____ _____    ______ ____
ROOT
ATOM      1  C   UNL     1      11.455  16.928  25.012  0.00  0.00    +0.104 A 
ATOM      2  N   UNL     1      11.956  16.785  26.307  0.00  0.00    -0.210 N 
ATOM      3  N   UNL     1      11.818  15.906  27.173  0.00  0.00    -0.147 NA
ATOM      4  C   UNL     1      12.428  15.942  28.382  0.00  0.00    +0.168 A 
ATOM      5  N   UNL     1      12.181  14.960  29.285  0.00  0.00    -0.219 NA
ATOM      6  C   UNL     1      13.296  17.000  28.684  0.00  0.00    +0.041 A 
ATOM      7  C   UNL     1      13.486  17.968  27.725  0.00  0.00    +0.042 A 
ATOM      8  C   UNL     1      12.806  17.870  26.515  0.00  0.00    +0.164 A 
ATOM      9  N   UNL     1      12.752  18.638  25.420  0.00  0.00    -0.223 NA
ATOM     10  C   UNL     1      11.969  18.062  24.497  0.00  0.00    +0.120 A 
ENDROOT
BRANCH   1  13
ATOM     11  C   UNL     1       8.416  15.461  23.486  0.00  0.00    +0.035 A 
ATOM     12  C   UNL     1       9.306  16.360  24.046  0.00  0.00    +0.004 A 
ATOM     13  C   UNL     1      10.598  15.992  24.433  0.00  0.00    +0.019 A 
ATOM     14  C   UNL     1      10.992  14.650  24.302  0.00  0.00    +0.002 A 
ATOM     15  C   UNL     1      10.092  13.722  23.745  0.00  0.00    +0.000 A 
ATOM     16  C   UNL     1       8.807  14.137  23.329  0.00  0.00    +0.003 A 
BRANCH  11  18
ATOM     17  C   UNL     1       6.623  17.423  23.273  0.00  0.00    +0.077 C 
ATOM     18  C   UNL     1       7.013  15.971  23.018  0.00  0.00    +0.173 C 
ATOM     19  O   UNL     1       6.230  15.250  22.395  0.00  0.00    -0.291 OA
ENDBRANCH  11  18
ENDBRANCH   1  13
BRANCH   5  20
ATOM     20  C   UNL     1      11.661  13.647  28.892  0.00  0.00    +0.114 C 
BRANCH  20  21
ATOM     21  C   UNL     1      10.164  13.475  29.226  0.00  0.00    +0.022 C 
ATOM     22  C   UNL     1       9.154  13.834  28.127  0.00  0.00    +0.002 C 
ATOM     23  C   UNL     1       9.447  12.371  28.413  0.00  0.00    +0.002 C 
ENDBRANCH  20  21
ENDBRANCH   5  20
TORSDOF 4
ENDMDL
MODEL 9
REMARK VINA RESULT:      -5.8      3.493      6.490
REMARK  Name = 4DYM_IYZ.pdb
REMARK  4 active torsions:
REMARK  status: ('A' for Active; 'I' for Inactive)
REMARK    1  A    between atoms: _11  and  _18
REMARK    2  A    between atoms: _11  and  _21
REMARK    3  A    between atoms: _12  and  _13
REMARK    4  A    between atoms: _14  and  _16
REMARK                            x       y       z     vdW  Elec       q    Type
REMARK                         _______ _______ _______ _____ _____    ______ ____
ROOT
ATOM      1  C   UNL     1      11.706  15.234  27.801  0.00  0.00    +0.104 A 
ATOM      2  N   UNL     1      12.097  16.333  27.035  0.00  0.00    -0.210 N 
ATOM      3  N   UNL     1      11.685  16.804  25.963  0.00  0.00    -0.147 NA
ATOM      4  C   UNL     1      12.194  17.921  25.389  0.00  0.00    +0.168 A 
ATOM      5  N   UNL     1      11.712  18.336  24.190  0.00  0.00    -0.219 NA
ATOM      6  C   UNL     1      13.217  18.625  26.040  0.00  0.00    +0.041 A 
ATOM      7  C   UNL     1      13.665  18.136  27.245  0.00  0.00    +0.042 A 
ATOM      8  C   UNL     1      13.106  16.970  27.757  0.00  0.00    +0.164 A 
ATOM      9  N   UNL     1      13.333  16.241  28.857  0.00  0.00    -0.223 NA
ATOM     10  C   UNL     1      12.472  15.215  28.910  0.00  0.00    +0.120 A 
ENDROOT
BRANCH   1  13
ATOM     11  C   UNL     1       9.903  12.524  26.034  0.00  0.00    +0.035 A 
ATOM     12  C   UNL     1      10.902  13.381  26.463  0.00  0.00    +0.004 A 
ATOM     13  C   UNL     1      10.673  14.381  27.414  0.00  0.00    +0.019 A 
ATOM     14  C   UNL     1       9.373  14.562  27.912  0.00  0.00    +0.002 A 
ATOM     15  C   UNL     1       8.345  13.705  27.475  0.00  0.00    +0.000 A 
ATOM     16  C   UNL     1       8.620  12.681  26.542  0.00  0.00    +0.003 A 
BRANCH  11  18
ATOM     17  C   UNL     1      11.609  11.419  24.308  0.00  0.00    +0.077 C 
ATOM     18  C   UNL     1      10.260  11.389  25.018  0.00  0.00    +0.173 C 
ATOM     19  O   UNL     1       9.507  10.434  24.815  0.00  0.00    -0.291 OA
ENDBRANCH  11  18
ENDBRANCH   1  13
BRANCH   5  20
ATOM     20  C   UNL     1      10.397  17.927  23.690  0.00  0.00    +0.114 C 
BRANCH  20  21
ATOM     21  C   UNL     1      10.472  16.709  22.744  0.00  0.00    +0.022 C 
ATOM     22  C   UNL     1       9.957  15.368  23.283  0.00  0.00    +0.002 C 
ATOM     23  C   UNL     1       9.097  16.151  22.304  0.00  0.00    +0.002 C 
ENDBRANCH  20  21
ENDBRANCH   5  20
TORSDOF 4
ENDMDL
