MODEL 1
REMARK VINA RESULT:      -8.2      0.000      0.000
REMARK  Name = 6T6D_MM8.pdb
REMARK  7 active torsions:
REMARK  status: ('A' for Active; 'I' for Inactive)
REMARK    1  A    between atoms: _1  and  _2
REMARK    2  A    between atoms: _2  and  _3
REMARK    3  A    between atoms: _5  and  _6
REMARK    4  A    between atoms: _10  and  _11
REMARK    5  A    between atoms: _14  and  _15
REMARK    6  A    between atoms: _23  and  _24
REMARK    7  A    between atoms: _27  and  _28
REMARK                            x       y       z     vdW  Elec       q    Type
REMARK                         _______ _______ _______ _____ _____    ______ ____
ROOT
ATOM      1  C   UNL     1       7.400  22.943  17.995  0.00  0.00    +0.004 A 
ATOM      2  C   UNL     1       8.806  23.007  18.119  0.00  0.00    -0.032 A 
ATOM      3  C   UNL     1       9.680  23.088  16.882  0.00  0.00    +0.045 C 
ATOM      4  C   UNL     1       9.372  22.988  19.431  0.00  0.00    +0.004 A 
ATOM      5  C   UNL     1       8.537  22.924  20.519  0.00  0.00    +0.119 A 
ATOM      6  N   UNL     1       7.212  22.867  20.373  0.00  0.00    -0.262 NA
ATOM      7  C   UNL     1       6.657  22.877  19.157  0.00  0.00    +0.119 A 
ENDROOT
BRANCH   1  12
ATOM      8  C   UNL     1       5.769  24.081  14.807  0.00  0.00    +0.133 A 
ATOM      9  C   UNL     1       5.294  22.861  14.308  0.00  0.00    +0.078 A 
ATOM     10  C   UNL     1       5.510  21.670  15.035  0.00  0.00    +0.017 A 
ATOM     11  C   UNL     1       6.203  21.714  16.253  0.00  0.00    +0.009 A 
ATOM     12  C   UNL     1       6.708  22.929  16.748  0.00  0.00    -0.013 A 
ATOM     13  C   UNL     1       6.467  24.122  16.025  0.00  0.00    +0.055 A 
BRANCH   9  14
ATOM     14  C   UNL     1       4.524  22.823  12.984  0.00  0.00    +0.245 C 
ATOM     15  O   UNL     1       4.752  21.990  12.188  0.00  0.00    -0.270 OA
ATOM     16  N   UNL     1       3.501  23.809  12.721  0.00  0.00    -0.325 N 
ATOM     17  H   UNL     1       3.329  24.418  13.302  0.00  0.00    +0.145 HD
ATOM     18  H   UNL     1       3.064  23.785  11.981  0.00  0.00    +0.145 HD
ENDBRANCH   9  14
BRANCH   8  20
ATOM     19  C   UNL     1       6.042  26.486  14.638  0.00  0.00    +0.277 C 
ATOM     20  O   UNL     1       5.530  25.290  14.049  0.00  0.00    -0.494 OA
ENDBRANCH   8  20
ENDBRANCH   1  12
BRANCH   4  21
ATOM     21  C   UNL     1      10.781  23.033  19.675  0.00  0.00    -0.016 A 
ATOM     22  C   UNL     1      11.482  21.901  20.125  0.00  0.00    +0.010 A 
ATOM     23  C   UNL     1      12.878  21.979  20.349  0.00  0.00    +0.024 A 
ATOM     24  C   UNL     1      13.561  23.176  20.111  0.00  0.00    +0.030 A 
ATOM     25  C   UNL     1      12.863  24.303  19.645  0.00  0.00    +0.024 A 
ATOM     26  C   UNL     1      11.484  24.220  19.416  0.00  0.00    +0.010 A 
BRANCH  24  27
ATOM     27  N   UNL     1      15.028  23.276  20.337  0.00  0.00    -0.327 N 
ATOM     28  C   UNL     1      15.569  23.905  21.578  0.00  0.00    +0.120 C 
ATOM     29  C   UNL     1      17.023  23.495  21.846  0.00  0.00    +0.100 C 
ATOM     30  N   UNL     1      17.880  23.765  20.738  0.00  0.00    -0.313 NA
ATOM     31  H   UNL     1      17.968  24.623  20.644  0.00  0.00    +0.122 HD
ATOM     32  C   UNL     1      17.408  23.202  19.526  0.00  0.00    +0.100 C 
ATOM     33  C   UNL     1      15.964  23.610  19.213  0.00  0.00    +0.120 C 
ENDBRANCH  24  27
ENDBRANCH   4  21
TORSDOF 5
ENDMDL
MODEL 2
REMARK VINA RESULT:      -8.2      8.641     11.729
REMARK  Name = 6T6D_MM8.pdb
REMARK  7 active torsions:
REMARK  status: ('A' for Active; 'I' for Inactive)
REMARK    1  A    between atoms: _1  and  _2
REMARK    2  A    between atoms: _2  and  _3
REMARK    3  A    between atoms: _5  and  _6
REMARK    4  A    between atoms: _10  and  _11
REMARK    5  A    between atoms: _14  and  _15
REMARK    6  A    between atoms: _23  and  _24
REMARK    7  A    between atoms: _27  and  _28
REMARK                            x       y       z     vdW  Elec       q    Type
REMARK                         _______ _______ _______ _____ _____    ______ ____
ROOT
ATOM      1  C   UNL     1      11.701  19.446  27.206  0.00  0.00    +0.004 A 
ATOM      2  C   UNL     1      12.468  19.855  26.093  0.00  0.00    -0.032 A 
ATOM      3  C   UNL     1      13.206  18.829  25.254  0.00  0.00    +0.045 C 
ATOM      4  C   UNL     1      12.532  21.250  25.790  0.00  0.00    +0.004 A 
ATOM      5  C   UNL     1      11.838  22.138  26.575  0.00  0.00    +0.119 A 
ATOM      6  N   UNL     1      11.119  21.723  27.619  0.00  0.00    -0.262 NA
ATOM      7  C   UNL     1      11.047  20.424  27.928  0.00  0.00    +0.119 A 
ENDROOT
BRANCH   1  12
ATOM      8  C   UNL     1      12.379  16.156  28.891  0.00  0.00    +0.133 A 
ATOM      9  C   UNL     1      11.304  15.393  28.414  0.00  0.00    +0.078 A 
ATOM     10  C   UNL     1      10.368  15.971  27.531  0.00  0.00    +0.017 A 
ATOM     11  C   UNL     1      10.514  17.309  27.138  0.00  0.00    +0.009 A 
ATOM     12  C   UNL     1      11.572  18.091  27.633  0.00  0.00    -0.013 A 
ATOM     13  C   UNL     1      12.522  17.497  28.499  0.00  0.00    +0.055 A 
BRANCH   9  14
ATOM     14  C   UNL     1      11.160  13.928  28.836  0.00  0.00    +0.245 C 
ATOM     15  O   UNL     1      10.945  13.097  28.033  0.00  0.00    -0.270 OA
ATOM     16  N   UNL     1      11.305  13.564  30.226  0.00  0.00    -0.325 N 
ATOM     17  H   UNL     1      11.465  14.167  30.816  0.00  0.00    +0.145 HD
ATOM     18  H   UNL     1      11.231  12.741  30.463  0.00  0.00    +0.145 HD
ENDBRANCH   9  14
BRANCH   8  20
ATOM     19  C   UNL     1      14.129  16.454  30.545  0.00  0.00    +0.277 C 
ATOM     20  O   UNL     1      13.332  15.541  29.789  0.00  0.00    -0.494 OA
ENDBRANCH   8  20
ENDBRANCH   1  12
BRANCH   4  21
ATOM     21  C   UNL     1      13.289  21.778  24.698  0.00  0.00    -0.016 A 
ATOM     22  C   UNL     1      14.620  22.201  24.866  0.00  0.00    +0.010 A 
ATOM     23  C   UNL     1      15.343  22.712  23.762  0.00  0.00    +0.024 A 
ATOM     24  C   UNL     1      14.740  22.785  22.501  0.00  0.00    +0.030 A 
ATOM     25  C   UNL     1      13.416  22.347  22.329  0.00  0.00    +0.024 A 
ATOM     26  C   UNL     1      12.707  21.834  23.422  0.00  0.00    +0.010 A 
BRANCH  24  27
ATOM     27  N   UNL     1      15.486  23.316  21.328  0.00  0.00    -0.327 N 
ATOM     28  C   UNL     1      16.975  23.243  21.272  0.00  0.00    +0.120 C 
ATOM     29  C   UNL     1      17.506  23.388  19.841  0.00  0.00    +0.100 C 
ATOM     30  N   UNL     1      17.043  24.577  19.203  0.00  0.00    -0.313 NA
ATOM     31  H   UNL     1      17.407  25.268  19.582  0.00  0.00    +0.122 HD
ATOM     32  C   UNL     1      15.632  24.707  19.238  0.00  0.00    +0.100 C 
ATOM     33  C   UNL     1      15.067  24.591  20.659  0.00  0.00    +0.120 C 
ENDBRANCH  24  27
ENDBRANCH   4  21
TORSDOF 5
ENDMDL
MODEL 3
REMARK VINA RESULT:      -8.1      4.294     10.467
REMARK  Name = 6T6D_MM8.pdb
REMARK  7 active torsions:
REMARK  status: ('A' for Active; 'I' for Inactive)
REMARK    1  A    between atoms: _1  and  _2
REMARK    2  A    between atoms: _2  and  _3
REMARK    3  A    between atoms: _5  and  _6
REMARK    4  A    between atoms: _10  and  _11
REMARK    5  A    between atoms: _14  and  _15
REMARK    6  A    between atoms: _23  and  _24
REMARK    7  A    between atoms: _27  and  _28
REMARK                            x       y       z     vdW  Elec       q    Type
REMARK                         _______ _______ _______ _____ _____    ______ ____
ROOT
ATOM      1  C   UNL     1       6.423  24.811  16.335  0.00  0.00    +0.004 A 
ATOM      2  C   UNL     1       6.146  23.895  15.297  0.00  0.00    -0.032 A 
ATOM      3  C   UNL     1       6.097  22.406  15.585  0.00  0.00    +0.045 C 
ATOM      4  C   UNL     1       5.922  24.406  13.982  0.00  0.00    +0.004 A 
ATOM      5  C   UNL     1       5.967  25.763  13.775  0.00  0.00    +0.119 A 
ATOM      6  N   UNL     1       6.229  26.607  14.775  0.00  0.00    -0.262 NA
ATOM      7  C   UNL     1       6.448  26.154  16.014  0.00  0.00    +0.119 A 
ENDROOT
BRANCH   1  12
ATOM      8  C   UNL     1       8.112  23.386  19.374  0.00  0.00    +0.133 A 
ATOM      9  C   UNL     1       7.155  23.664  20.359  0.00  0.00    +0.078 A 
ATOM     10  C   UNL     1       5.952  24.314  20.007  0.00  0.00    +0.017 A 
ATOM     11  C   UNL     1       5.723  24.683  18.674  0.00  0.00    +0.009 A 
ATOM     12  C   UNL     1       6.690  24.434  17.684  0.00  0.00    -0.013 A 
ATOM     13  C   UNL     1       7.883  23.760  18.040  0.00  0.00    +0.055 A 
BRANCH   9  14
ATOM     14  C   UNL     1       7.405  23.244  21.810  0.00  0.00    +0.245 C 
ATOM     15  O   UNL     1       7.656  24.051  22.626  0.00  0.00    -0.270 OA
ATOM     16  N   UNL     1       7.318  21.851  22.179  0.00  0.00    -0.325 N 
ATOM     17  H   UNL     1       7.132  21.257  21.586  0.00  0.00    +0.145 HD
ATOM     18  H   UNL     1       7.452  21.615  22.995  0.00  0.00    +0.145 HD
ENDBRANCH   9  14
BRANCH   8  20
ATOM     19  C   UNL     1      10.510  23.160  19.079  0.00  0.00    +0.277 C 
ATOM     20  O   UNL     1       9.334  22.712  19.755  0.00  0.00    -0.494 OA
ENDBRANCH   8  20
ENDBRANCH   1  12
BRANCH   4  21
ATOM     21  C   UNL     1       5.648  23.571  12.854  0.00  0.00    -0.016 A 
ATOM     22  C   UNL     1       4.331  23.224  12.503  0.00  0.00    +0.010 A 
ATOM     23  C   UNL     1       4.095  22.402  11.376  0.00  0.00    +0.024 A 
ATOM     24  C   UNL     1       5.168  21.944  10.603  0.00  0.00    +0.030 A 
ATOM     25  C   UNL     1       6.483  22.304  10.944  0.00  0.00    +0.024 A 
ATOM     26  C   UNL     1       6.712  23.126  12.055  0.00  0.00    +0.010 A 
BRANCH  24  27
ATOM     27  N   UNL     1       4.940  21.082   9.413  0.00  0.00    -0.327 N 
ATOM     28  C   UNL     1       3.556  20.751   8.963  0.00  0.00    +0.120 C 
ATOM     29  C   UNL     1       3.521  20.279   7.504  0.00  0.00    +0.100 C 
ATOM     30  N   UNL     1       4.397  19.179   7.264  0.00  0.00    -0.313 NA
ATOM     31  H   UNL     1       4.094  18.474   7.670  0.00  0.00    +0.122 HD
ATOM     32  C   UNL     1       5.727  19.431   7.686  0.00  0.00    +0.100 C 
ATOM     33  C   UNL     1       5.803  19.884   9.148  0.00  0.00    +0.120 C 
ENDBRANCH  24  27
ENDBRANCH   4  21
TORSDOF 5
ENDMDL
MODEL 4
REMARK VINA RESULT:      -8.1      8.307     11.330
REMARK  Name = 6T6D_MM8.pdb
REMARK  7 active torsions:
REMARK  status: ('A' for Active; 'I' for Inactive)
REMARK    1  A    between atoms: _1  and  _2
REMARK    2  A    between atoms: _2  and  _3
REMARK    3  A    between atoms: _5  and  _6
REMARK    4  A    between atoms: _10  and  _11
REMARK    5  A    between atoms: _14  and  _15
REMARK    6  A    between atoms: _23  and  _24
REMARK    7  A    between atoms: _27  and  _28
REMARK                            x       y       z     vdW  Elec       q    Type
REMARK                         _______ _______ _______ _____ _____    ______ ____
ROOT
ATOM      1  C   UNL     1      11.568  19.199  27.209  0.00  0.00    +0.004 A 
ATOM      2  C   UNL     1      12.315  19.645  26.097  0.00  0.00    -0.032 A 
ATOM      3  C   UNL     1      12.988  18.644  25.177  0.00  0.00    +0.045 C 
ATOM      4  C   UNL     1      12.422  21.052  25.871  0.00  0.00    +0.004 A 
ATOM      5  C   UNL     1      11.786  21.917  26.728  0.00  0.00    +0.119 A 
ATOM      6  N   UNL     1      11.084  21.468  27.770  0.00  0.00    -0.262 NA
ATOM      7  C   UNL     1      10.973  20.157  28.007  0.00  0.00    +0.119 A 
ENDROOT
BRANCH   1  12
ATOM      8  C   UNL     1      10.121  15.746  27.527  0.00  0.00    +0.133 A 
ATOM      9  C   UNL     1      11.093  15.128  28.324  0.00  0.00    +0.078 A 
ATOM     10  C   UNL     1      12.218  15.862  28.758  0.00  0.00    +0.017 A 
ATOM     11  C   UNL     1      12.359  17.206  28.385  0.00  0.00    +0.009 A 
ATOM     12  C   UNL     1      11.403  17.827  27.562  0.00  0.00    -0.013 A 
ATOM     13  C   UNL     1      10.265  17.092  27.151  0.00  0.00    +0.055 A 
BRANCH   9  14
ATOM     14  C   UNL     1      10.925  13.664  28.739  0.00  0.00    +0.245 C 
ATOM     15  O   UNL     1      10.878  13.371  29.876  0.00  0.00    -0.270 OA
ATOM     16  N   UNL     1      10.807  12.639  27.728  0.00  0.00    -0.325 N 
ATOM     17  H   UNL     1      10.838  12.849  26.895  0.00  0.00    +0.145 HD
ATOM     18  H   UNL     1      10.705  11.818  27.960  0.00  0.00    +0.145 HD
ENDBRANCH   9  14
BRANCH   8  20
ATOM     19  C   UNL     1       8.755  14.943  25.688  0.00  0.00    +0.277 C 
ATOM     20  O   UNL     1       8.972  14.977  27.100  0.00  0.00    -0.494 OA
ENDBRANCH   8  20
ENDBRANCH   1  12
BRANCH   4  21
ATOM     21  C   UNL     1      13.164  21.616  24.787  0.00  0.00    -0.016 A 
ATOM     22  C   UNL     1      14.502  22.018  24.946  0.00  0.00    +0.010 A 
ATOM     23  C   UNL     1      15.210  22.565  23.850  0.00  0.00    +0.024 A 
ATOM     24  C   UNL     1      14.584  22.695  22.604  0.00  0.00    +0.030 A 
ATOM     25  C   UNL     1      13.253  22.277  22.441  0.00  0.00    +0.024 A 
ATOM     26  C   UNL     1      12.559  21.727  23.526  0.00  0.00    +0.010 A 
BRANCH  24  27
ATOM     27  N   UNL     1      15.313  23.264  21.439  0.00  0.00    -0.327 N 
ATOM     28  C   UNL     1      16.804  23.245  21.387  0.00  0.00    +0.120 C 
ATOM     29  C   UNL     1      17.334  23.424  19.959  0.00  0.00    +0.100 C 
ATOM     30  N   UNL     1      16.830  24.602  19.332  0.00  0.00    -0.313 NA
ATOM     31  H   UNL     1      17.167  25.302  19.719  0.00  0.00    +0.122 HD
ATOM     32  C   UNL     1      15.415  24.682  19.364  0.00  0.00    +0.100 C 
ATOM     33  C   UNL     1      14.851  24.530  20.781  0.00  0.00    +0.120 C 
ENDBRANCH  24  27
ENDBRANCH   4  21
TORSDOF 5
ENDMDL
MODEL 5
REMARK VINA RESULT:      -7.9      8.613     11.894
REMARK  Name = 6T6D_MM8.pdb
REMARK  7 active torsions:
REMARK  status: ('A' for Active; 'I' for Inactive)
REMARK    1  A    between atoms: _1  and  _2
REMARK    2  A    between atoms: _2  and  _3
REMARK    3  A    between atoms: _5  and  _6
REMARK    4  A    between atoms: _10  and  _11
REMARK    5  A    between atoms: _14  and  _15
REMARK    6  A    between atoms: _23  and  _24
REMARK    7  A    between atoms: _27  and  _28
REMARK                            x       y       z     vdW  Elec       q    Type
REMARK                         _______ _______ _______ _____ _____    ______ ____
ROOT
ATOM      1  C   UNL     1      12.383  21.342  26.058  0.00  0.00    +0.004 A 
ATOM      2  C   UNL     1      12.210  19.945  26.167  0.00  0.00    -0.032 A 
ATOM      3  C   UNL     1      12.836  19.015  25.145  0.00  0.00    +0.045 C 
ATOM      4  C   UNL     1      11.430  19.441  27.253  0.00  0.00    +0.004 A 
ATOM      5  C   UNL     1      10.891  20.324  28.156  0.00  0.00    +0.119 A 
ATOM      6  N   UNL     1      11.074  21.640  28.031  0.00  0.00    -0.262 NA
ATOM      7  C   UNL     1      11.794  22.138  27.021  0.00  0.00    +0.119 A 
ENDROOT
BRANCH   1  12
ATOM      8  C   UNL     1      13.306  22.772  22.707  0.00  0.00    +0.133 A 
ATOM      9  C   UNL     1      14.618  23.197  22.958  0.00  0.00    +0.078 A 
ATOM     10  C   UNL     1      15.190  22.998  24.232  0.00  0.00    +0.017 A 
ATOM     11  C   UNL     1      14.442  22.381  25.244  0.00  0.00    +0.009 A 
ATOM     12  C   UNL     1      13.116  21.978  25.012  0.00  0.00    -0.013 A 
ATOM     13  C   UNL     1      12.556  22.157  23.723  0.00  0.00    +0.055 A 
BRANCH   9  14
ATOM     14  C   UNL     1      15.434  23.856  21.843  0.00  0.00    +0.245 C 
ATOM     15  O   UNL     1      16.556  23.552  21.669  0.00  0.00    -0.270 OA
ATOM     16  N   UNL     1      14.817  24.845  20.990  0.00  0.00    -0.325 N 
ATOM     17  H   UNL     1      13.996  25.069  21.112  0.00  0.00    +0.145 HD
ATOM     18  H   UNL     1      15.273  25.212  20.360  0.00  0.00    +0.145 HD
ENDBRANCH   9  14
BRANCH   8  20
ATOM     19  C   UNL     1      12.555  21.791  20.618  0.00  0.00    +0.277 C 
ATOM     20  O   UNL     1      12.741  22.978  21.392  0.00  0.00    -0.494 OA
ENDBRANCH   8  20
ENDBRANCH   1  12
BRANCH   4  21
ATOM     21  C   UNL     1      11.176  18.048  27.453  0.00  0.00    -0.016 A 
ATOM     22  C   UNL     1      12.053  17.245  28.203  0.00  0.00    +0.010 A 
ATOM     23  C   UNL     1      11.767  15.871  28.388  0.00  0.00    +0.024 A 
ATOM     24  C   UNL     1      10.608  15.314  27.837  0.00  0.00    +0.030 A 
ATOM     25  C   UNL     1       9.724  16.120  27.101  0.00  0.00    +0.024 A 
ATOM     26  C   UNL     1      10.004  17.481  26.928  0.00  0.00    +0.010 A 
BRANCH  24  27
ATOM     27  N   UNL     1      10.290  13.873  28.023  0.00  0.00    -0.327 N 
ATOM     28  C   UNL     1      10.651  13.168  29.288  0.00  0.00    +0.120 C 
ATOM     29  C   UNL     1       9.844  11.878  29.480  0.00  0.00    +0.100 C 
ATOM     30  N   UNL     1       9.956  10.992  28.368  0.00  0.00    -0.313 NA
ATOM     31  H   UNL     1      10.763  10.675  28.332  0.00  0.00    +0.122 HD
ATOM     32  C   UNL     1       9.637  11.613  27.134  0.00  0.00    +0.100 C 
ATOM     33  C   UNL     1      10.444  12.895  26.897  0.00  0.00    +0.120 C 
ENDBRANCH  24  27
ENDBRANCH   4  21
TORSDOF 5
ENDMDL
MODEL 6
REMARK VINA RESULT:      -7.9      3.851      9.931
REMARK  Name = 6T6D_MM8.pdb
REMARK  7 active torsions:
REMARK  status: ('A' for Active; 'I' for Inactive)
REMARK    1  A    between atoms: _1  and  _2
REMARK    2  A    between atoms: _2  and  _3
REMARK    3  A    between atoms: _5  and  _6
REMARK    4  A    between atoms: _10  and  _11
REMARK    5  A    between atoms: _14  and  _15
REMARK    6  A    between atoms: _23  and  _24
REMARK    7  A    between atoms: _27  and  _28
REMARK                            x       y       z     vdW  Elec       q    Type
REMARK                         _______ _______ _______ _____ _____    ______ ____
ROOT
ATOM      1  C   UNL     1      10.367  22.792  20.122  0.00  0.00    +0.004 A 
ATOM      2  C   UNL     1       9.877  23.507  19.007  0.00  0.00    -0.032 A 
ATOM      3  C   UNL     1      10.757  24.526  18.306  0.00  0.00    +0.045 C 
ATOM      4  C   UNL     1       8.542  23.250  18.569  0.00  0.00    +0.004 A 
ATOM      5  C   UNL     1       7.790  22.311  19.232  0.00  0.00    +0.119 A 
ATOM      6  N   UNL     1       8.279  21.647  20.281  0.00  0.00    -0.262 NA
ATOM      7  C   UNL     1       9.523  21.873  20.715  0.00  0.00    +0.119 A 
ENDROOT
BRANCH   1  12
ATOM      8  C   UNL     1      14.063  22.475  20.722  0.00  0.00    +0.133 A 
ATOM      9  C   UNL     1      14.220  23.314  21.833  0.00  0.00    +0.078 A 
ATOM     10  C   UNL     1      13.098  23.971  22.382  0.00  0.00    +0.017 A 
ATOM     11  C   UNL     1      11.832  23.786  21.809  0.00  0.00    +0.009 A 
ATOM     12  C   UNL     1      11.669  22.969  20.676  0.00  0.00    -0.013 A 
ATOM     13  C   UNL     1      12.795  22.293  20.146  0.00  0.00    +0.055 A 
BRANCH   9  14
ATOM     14  C   UNL     1      15.603  23.499  22.463  0.00  0.00    +0.245 C 
ATOM     15  O   UNL     1      15.781  23.233  23.594  0.00  0.00    -0.270 OA
ATOM     16  N   UNL     1      16.698  23.988  21.659  0.00  0.00    -0.325 N 
ATOM     17  H   UNL     1      16.574  24.181  20.831  0.00  0.00    +0.145 HD
ATOM     18  H   UNL     1      17.477  24.086  22.010  0.00  0.00    +0.145 HD
ENDBRANCH   9  14
BRANCH   8  20
ATOM     19  C   UNL     1      15.281  21.744  18.754  0.00  0.00    +0.277 C 
ATOM     20  O   UNL     1      15.225  21.805  20.180  0.00  0.00    -0.494 OA
ENDBRANCH   8  20
ENDBRANCH   1  12
BRANCH   4  21
ATOM     21  C   UNL     1       7.938  23.925  17.463  0.00  0.00    -0.016 A 
ATOM     22  C   UNL     1       7.221  25.121  17.639  0.00  0.00    +0.010 A 
ATOM     23  C   UNL     1       6.642  25.768  16.520  0.00  0.00    +0.024 A 
ATOM     24  C   UNL     1       6.794  25.226  15.240  0.00  0.00    +0.030 A 
ATOM     25  C   UNL     1       7.526  24.040  15.061  0.00  0.00    +0.024 A 
ATOM     26  C   UNL     1       8.105  23.408  16.169  0.00  0.00    +0.010 A 
BRANCH  24  27
ATOM     27  N   UNL     1       6.197  25.894  14.052  0.00  0.00    -0.327 N 
ATOM     28  C   UNL     1       6.037  25.159  12.763  0.00  0.00    +0.120 C 
ATOM     29  C   UNL     1       5.004  25.824  11.844  0.00  0.00    +0.100 C 
ATOM     30  N   UNL     1       5.295  27.199  11.600  0.00  0.00    -0.313 NA
ATOM     31  H   UNL     1       6.010  27.261  11.111  0.00  0.00    +0.122 HD
ATOM     32  C   UNL     1       5.471  27.946  12.792  0.00  0.00    +0.100 C 
ATOM     33  C   UNL     1       6.515  27.322  13.725  0.00  0.00    +0.120 C 
ENDBRANCH  24  27
ENDBRANCH   4  21
TORSDOF 5
ENDMDL
MODEL 7
REMARK VINA RESULT:      -7.8      6.813      8.687
REMARK  Name = 6T6D_MM8.pdb
REMARK  7 active torsions:
REMARK  status: ('A' for Active; 'I' for Inactive)
REMARK    1  A    between atoms: _1  and  _2
REMARK    2  A    between atoms: _2  and  _3
REMARK    3  A    between atoms: _5  and  _6
REMARK    4  A    between atoms: _10  and  _11
REMARK    5  A    between atoms: _14  and  _15
REMARK    6  A    between atoms: _23  and  _24
REMARK    7  A    between atoms: _27  and  _28
REMARK                            x       y       z     vdW  Elec       q    Type
REMARK                         _______ _______ _______ _____ _____    ______ ____
ROOT
ATOM      1  C   UNL     1      17.112  24.406  17.523  0.00  0.00    +0.004 A 
ATOM      2  C   UNL     1      16.188  24.072  18.538  0.00  0.00    -0.032 A 
ATOM      3  C   UNL     1      14.699  24.241  18.301  0.00  0.00    +0.045 C 
ATOM      4  C   UNL     1      16.694  23.581  19.780  0.00  0.00    +0.004 A 
ATOM      5  C   UNL     1      18.050  23.436  19.941  0.00  0.00    +0.119 A 
ATOM      6  N   UNL     1      18.900  23.757  18.964  0.00  0.00    -0.262 NA
ATOM      7  C   UNL     1      18.454  24.225  17.794  0.00  0.00    +0.119 A 
ENDROOT
BRANCH   1  12
ATOM      8  C   UNL     1      15.639  26.611  14.860  0.00  0.00    +0.133 A 
ATOM      9  C   UNL     1      15.998  25.901  13.707  0.00  0.00    +0.078 A 
ATOM     10  C   UNL     1      16.717  24.692  13.820  0.00  0.00    +0.017 A 
ATOM     11  C   UNL     1      17.074  24.210  15.086  0.00  0.00    +0.009 A 
ATOM     12  C   UNL     1      16.744  24.929  16.248  0.00  0.00    -0.013 A 
ATOM     13  C   UNL     1      16.001  26.128  16.129  0.00  0.00    +0.055 A 
BRANCH   9  14
ATOM     14  C   UNL     1      15.590  26.428  12.328  0.00  0.00    +0.245 C 
ATOM     15  O   UNL     1      16.393  26.545  11.477  0.00  0.00    -0.270 OA
ATOM     16  N   UNL     1      14.211  26.766  12.067  0.00  0.00    -0.325 N 
ATOM     17  H   UNL     1      13.621  26.679  12.686  0.00  0.00    +0.145 HD
ATOM     18  H   UNL     1      13.980  27.055  11.291  0.00  0.00    +0.145 HD
ENDBRANCH   9  14
BRANCH   8  20
ATOM     19  C   UNL     1      13.734  27.947  15.549  0.00  0.00    +0.277 C 
ATOM     20  O   UNL     1      14.895  27.844  14.723  0.00  0.00    -0.494 OA
ENDBRANCH   8  20
ENDBRANCH   1  12
BRANCH   4  21
ATOM     21  C   UNL     1      15.853  23.226  20.881  0.00  0.00    -0.016 A 
ATOM     22  C   UNL     1      14.615  22.589  20.681  0.00  0.00    +0.010 A 
ATOM     23  C   UNL     1      13.811  22.245  21.793  0.00  0.00    +0.024 A 
ATOM     24  C   UNL     1      14.251  22.524  23.092  0.00  0.00    +0.030 A 
ATOM     25  C   UNL     1      15.495  23.145  23.292  0.00  0.00    +0.024 A 
ATOM     26  C   UNL     1      16.293  23.476  22.190  0.00  0.00    +0.010 A 
BRANCH  24  27
ATOM     27  N   UNL     1      13.421  22.167  24.273  0.00  0.00    -0.327 N 
ATOM     28  C   UNL     1      12.132  21.434  24.108  0.00  0.00    +0.120 C 
ATOM     29  C   UNL     1      11.683  20.756  25.408  0.00  0.00    +0.100 C 
ATOM     30  N   UNL     1      11.598  21.669  26.501  0.00  0.00    -0.313 NA
ATOM     31  H   UNL     1      10.939  22.218  26.368  0.00  0.00    +0.122 HD
ATOM     32  C   UNL     1      12.794  22.406  26.697  0.00  0.00    +0.100 C 
ATOM     33  C   UNL     1      13.260  23.117  25.422  0.00  0.00    +0.120 C 
ENDBRANCH  24  27
ENDBRANCH   4  21
TORSDOF 5
ENDMDL
MODEL 8
REMARK VINA RESULT:      -7.7      4.191     10.055
REMARK  Name = 6T6D_MM8.pdb
REMARK  7 active torsions:
REMARK  status: ('A' for Active; 'I' for Inactive)
REMARK    1  A    between atoms: _1  and  _2
REMARK    2  A    between atoms: _2  and  _3
REMARK    3  A    between atoms: _5  and  _6
REMARK    4  A    between atoms: _10  and  _11
REMARK    5  A    between atoms: _14  and  _15
REMARK    6  A    between atoms: _23  and  _24
REMARK    7  A    between atoms: _27  and  _28
REMARK                            x       y       z     vdW  Elec       q    Type
REMARK                         _______ _______ _______ _____ _____    ______ ____
ROOT
ATOM      1  C   UNL     1      11.713  22.031  20.132  0.00  0.00    +0.004 A 
ATOM      2  C   UNL     1      11.069  22.841  19.171  0.00  0.00    -0.032 A 
ATOM      3  C   UNL     1      11.865  23.846  18.360  0.00  0.00    +0.045 C 
ATOM      4  C   UNL     1       9.659  22.690  18.993  0.00  0.00    +0.004 A 
ATOM      5  C   UNL     1       8.986  21.759  19.745  0.00  0.00    +0.119 A 
ATOM      6  N   UNL     1       9.621  21.005  20.644  0.00  0.00    -0.262 NA
ATOM      7  C   UNL     1      10.938  21.130  20.835  0.00  0.00    +0.119 A 
ENDROOT
BRANCH   1  12
ATOM      8  C   UNL     1      14.964  22.790  21.859  0.00  0.00    +0.133 A 
ATOM      9  C   UNL     1      15.877  22.246  20.946  0.00  0.00    +0.078 A 
ATOM     10  C   UNL     1      15.410  21.639  19.760  0.00  0.00    +0.017 A 
ATOM     11  C   UNL     1      14.033  21.579  19.503  0.00  0.00    +0.009 A 
ATOM     12  C   UNL     1      13.108  22.097  20.426  0.00  0.00    -0.013 A 
ATOM     13  C   UNL     1      13.584  22.726  21.602  0.00  0.00    +0.055 A 
BRANCH   9  14
ATOM     14  C   UNL     1      17.380  22.328  21.227  0.00  0.00    +0.245 C 
ATOM     15  O   UNL     1      18.027  21.349  21.292  0.00  0.00    -0.270 OA
ATOM     16  N   UNL     1      18.008  23.618  21.397  0.00  0.00    -0.325 N 
ATOM     17  H   UNL     1      17.540  24.336  21.347  0.00  0.00    +0.145 HD
ATOM     18  H   UNL     1      18.853  23.666  21.548  0.00  0.00    +0.145 HD
ENDBRANCH   9  14
BRANCH   8  20
ATOM     19  C   UNL     1      15.211  22.693  24.271  0.00  0.00    +0.277 C 
ATOM     20  O   UNL     1      15.464  23.414  23.064  0.00  0.00    -0.494 OA
ENDBRANCH   8  20
ENDBRANCH   1  12
BRANCH   4  21
ATOM     21  C   UNL     1       8.902  23.466  18.061  0.00  0.00    -0.016 A 
ATOM     22  C   UNL     1       7.996  24.450  18.494  0.00  0.00    +0.010 A 
ATOM     23  C   UNL     1       7.268  25.206  17.544  0.00  0.00    +0.024 A 
ATOM     24  C   UNL     1       7.457  24.984  16.176  0.00  0.00    +0.030 A 
ATOM     25  C   UNL     1       8.375  24.011  15.743  0.00  0.00    +0.024 A 
ATOM     26  C   UNL     1       9.100  23.272  16.685  0.00  0.00    +0.010 A 
BRANCH  24  27
ATOM     27  N   UNL     1       6.704  25.770  15.162  0.00  0.00    -0.327 N 
ATOM     28  C   UNL     1       6.229  27.152  15.466  0.00  0.00    +0.120 C 
ATOM     29  C   UNL     1       5.915  27.947  14.193  0.00  0.00    +0.100 C 
ATOM     30  N   UNL     1       4.984  27.277  13.345  0.00  0.00    -0.313 NA
ATOM     31  H   UNL     1       4.204  27.265  13.725  0.00  0.00    +0.122 HD
ATOM     32  C   UNL     1       5.378  25.951  13.033  0.00  0.00    +0.100 C 
ATOM     33  C   UNL     1       5.677  25.119  14.284  0.00  0.00    +0.120 C 
ENDBRANCH  24  27
ENDBRANCH   4  21
TORSDOF 5
ENDMDL
MODEL 9
REMARK VINA RESULT:      -7.7      4.154      6.146
REMARK  Name = 6T6D_MM8.pdb
REMARK  7 active torsions:
REMARK  status: ('A' for Active; 'I' for Inactive)
REMARK    1  A    between atoms: _1  and  _2
REMARK    2  A    between atoms: _2  and  _3
REMARK    3  A    between atoms: _5  and  _6
REMARK    4  A    between atoms: _10  and  _11
REMARK    5  A    between atoms: _14  and  _15
REMARK    6  A    between atoms: _23  and  _24
REMARK    7  A    between atoms: _27  and  _28
REMARK                            x       y       z     vdW  Elec       q    Type
REMARK                         _______ _______ _______ _____ _____    ______ ____
ROOT
ATOM      1  C   UNL     1      11.394  23.632  18.384  0.00  0.00    +0.004 A 
ATOM      2  C   UNL     1      10.983  22.921  19.534  0.00  0.00    -0.032 A 
ATOM      3  C   UNL     1       9.570  23.074  20.063  0.00  0.00    +0.045 C 
ATOM      4  C   UNL     1      11.932  22.069  20.179  0.00  0.00    +0.004 A 
ATOM      5  C   UNL     1      13.196  21.957  19.654  0.00  0.00    +0.119 A 
ATOM      6  N   UNL     1      13.556  22.639  18.565  0.00  0.00    -0.262 NA
ATOM      7  C   UNL     1      12.690  23.447  17.946  0.00  0.00    +0.119 A 
ENDROOT
BRANCH   1  12
ATOM      8  C   UNL     1       8.707  24.972  16.124  0.00  0.00    +0.133 A 
ATOM      9  C   UNL     1       8.957  26.348  16.211  0.00  0.00    +0.078 A 
ATOM     10  C   UNL     1      10.019  26.822  17.011  0.00  0.00    +0.017 A 
ATOM     11  C   UNL     1      10.817  25.913  17.719  0.00  0.00    +0.009 A 
ATOM     12  C   UNL     1      10.557  24.533  17.661  0.00  0.00    -0.013 A 
ATOM     13  C   UNL     1       9.506  24.063  16.837  0.00  0.00    +0.055 A 
BRANCH   9  14
ATOM     14  C   UNL     1       8.090  27.334  15.422  0.00  0.00    +0.245 C 
ATOM     15  O   UNL     1       8.549  27.947  14.531  0.00  0.00    -0.270 OA
ATOM     16  N   UNL     1       6.697  27.499  15.766  0.00  0.00    -0.325 N 
ATOM     17  H   UNL     1       6.356  27.050  16.415  0.00  0.00    +0.145 HD
ATOM     18  H   UNL     1       6.208  28.047  15.319  0.00  0.00    +0.145 HD
ENDBRANCH   9  14
BRANCH   8  20
ATOM     19  C   UNL     1       6.553  23.862  15.991  0.00  0.00    +0.277 C 
ATOM     20  O   UNL     1       7.619  24.507  15.292  0.00  0.00    -0.494 OA
ENDBRANCH   8  20
ENDBRANCH   1  12
BRANCH   4  21
ATOM     21  C   UNL     1      11.631  21.314  21.356  0.00  0.00    -0.016 A 
ATOM     22  C   UNL     1      10.927  20.099  21.286  0.00  0.00    +0.010 A 
ATOM     23  C   UNL     1      10.653  19.374  22.470  0.00  0.00    +0.024 A 
ATOM     24  C   UNL     1      11.093  19.857  23.707  0.00  0.00    +0.030 A 
ATOM     25  C   UNL     1      11.812  21.062  23.775  0.00  0.00    +0.024 A 
ATOM     26  C   UNL     1      12.089  21.773  22.600  0.00  0.00    +0.010 A 
BRANCH  24  27
ATOM     27  N   UNL     1      10.818  19.107  24.962  0.00  0.00    -0.327 N 
ATOM     28  C   UNL     1      11.706  19.256  26.152  0.00  0.00    +0.120 C 
ATOM     29  C   UNL     1      11.018  18.804  27.446  0.00  0.00    +0.100 C 
ATOM     30  N   UNL     1      10.518  17.471  27.363  0.00  0.00    -0.313 NA
ATOM     31  H   UNL     1      11.184  16.914  27.331  0.00  0.00    +0.122 HD
ATOM     32  C   UNL     1       9.677  17.266  26.241  0.00  0.00    +0.100 C 
ATOM     33  C   UNL     1      10.342  17.685  24.925  0.00  0.00    +0.120 C 
ENDBRANCH  24  27
ENDBRANCH   4  21
TORSDOF 5
ENDMDL
