MODEL 1
REMARK VINA RESULT:      -8.7      0.000      0.000
REMARK  Name = 5S88_LU8.pdb
REMARK  6 active torsions:
REMARK  status: ('A' for Active; 'I' for Inactive)
REMARK    1  A    between atoms: _2  and  _3
REMARK    2  A    between atoms: _5  and  _6
REMARK    3  A    between atoms: _10  and  _11
REMARK    4  A    between atoms: _14  and  _15
REMARK    5  A    between atoms: _27  and  _28
REMARK    6  A    between atoms: _30  and  _31
REMARK                            x       y       z     vdW  Elec       q    Type
REMARK                         _______ _______ _______ _____ _____    ______ ____
ROOT
ATOM      1  C   UNL     1      16.305  23.236  16.718  0.00  0.00    +0.015 A 
ATOM      2  C   UNL     1      16.503  24.267  15.812  0.00  0.00    -0.019 A 
ATOM      3  C   UNL     1      16.654  25.669  16.322  0.00  0.00    +0.031 C 
ATOM      4  C   UNL     1      16.608  24.024  14.411  0.00  0.00    +0.015 A 
ATOM      5  C   UNL     1      16.561  22.701  14.067  0.00  0.00    +0.099 A 
ATOM      6  N   UNL     1      16.399  21.722  14.909  0.00  0.00    -0.242 NA
ATOM      7  C   UNL     1      16.263  21.950  16.221  0.00  0.00    +0.099 A 
ENDROOT
BRANCH   1  12
ATOM      8  C   UNL     1      14.978  24.065  20.168  0.00  0.00    +0.175 A 
ATOM      9  C   UNL     1      16.079  23.790  20.954  0.00  0.00    +0.206 A 
ATOM     10  C   UNL     1      17.258  23.406  20.357  0.00  0.00    +0.175 A 
ATOM     11  C   UNL     1      17.317  23.253  18.988  0.00  0.00    +0.040 A 
ATOM     12  C   UNL     1      16.197  23.496  18.179  0.00  0.00    +0.007 A 
ATOM     13  C   UNL     1      15.025  23.938  18.790  0.00  0.00    +0.040 A 
BRANCH   8  15
ATOM     14  C   UNL     1      12.687  23.694  20.711  0.00  0.00    +0.253 C 
ATOM     15  O   UNL     1      13.884  24.495  20.849  0.00  0.00    -0.468 OA
ENDBRANCH   8  15
BRANCH   9  16
ATOM     16  O   UNL     1      16.007  23.889  22.323  0.00  0.00    -0.465 OA
ATOM     17  C   UNL     1      15.502  22.808  23.031  0.00  0.00    +0.253 C 
ENDBRANCH   9  16
BRANCH  10  18
ATOM     18  O   UNL     1      18.321  23.155  21.209  0.00  0.00    -0.468 OA
ATOM     19  C   UNL     1      19.033  21.913  21.165  0.00  0.00    +0.253 C 
ENDBRANCH  10  18
ENDBRANCH   1  12
BRANCH   4  20
ATOM     20  C   UNL     1      16.802  25.057  13.384  0.00  0.00    +0.001 A 
ATOM     21  C   UNL     1      15.671  25.751  12.821  0.00  0.00    -0.000 A 
ATOM     22  C   UNL     1      15.805  26.711  11.849  0.00  0.00    -0.004 A 
ATOM     23  C   UNL     1      17.073  27.019  11.329  0.00  0.00    -0.022 A 
ATOM     24  C   UNL     1      18.177  26.347  11.896  0.00  0.00    -0.004 A 
ATOM     25  C   UNL     1      18.057  25.384  12.832  0.00  0.00    -0.000 A 
BRANCH  23  26
ATOM     26  C   UNL     1      17.135  28.126  10.339  0.00  0.00    +0.025 C 
ATOM     27  C   UNL     1      18.110  29.218  10.666  0.00  0.00    +0.022 C 
ATOM     28  C   UNL     1      18.137  30.145   9.454  0.00  0.00    +0.072 C 
ATOM     29  N   UNL     1      16.847  30.879   9.307  0.00  0.00    -0.271 NA
ATOM     30  C   UNL     1      16.628  31.819  10.435  0.00  0.00    +0.090 C 
ATOM     31  C   UNL     1      15.717  29.935   9.118  0.00  0.00    +0.072 C 
ATOM     32  C   UNL     1      15.740  28.704  10.046  0.00  0.00    +0.022 C 
ENDBRANCH  23  26
ENDBRANCH   4  20
TORSDOF 6
ENDMDL
MODEL 2
REMARK VINA RESULT:      -8.6      0.238      2.198
REMARK  Name = 5S88_LU8.pdb
REMARK  6 active torsions:
REMARK  status: ('A' for Active; 'I' for Inactive)
REMARK    1  A    between atoms: _2  and  _3
REMARK    2  A    between atoms: _5  and  _6
REMARK    3  A    between atoms: _10  and  _11
REMARK    4  A    between atoms: _14  and  _15
REMARK    5  A    between atoms: _27  and  _28
REMARK    6  A    between atoms: _30  and  _31
REMARK                            x       y       z     vdW  Elec       q    Type
REMARK                         _______ _______ _______ _____ _____    ______ ____
ROOT
ATOM      1  C   UNL     1      16.314  23.090  16.595  0.00  0.00    +0.015 A 
ATOM      2  C   UNL     1      16.574  24.150  15.741  0.00  0.00    -0.019 A 
ATOM      3  C   UNL     1      16.910  25.491  16.323  0.00  0.00    +0.031 C 
ATOM      4  C   UNL     1      16.573  23.989  14.325  0.00  0.00    +0.015 A 
ATOM      5  C   UNL     1      16.360  22.705  13.908  0.00  0.00    +0.099 A 
ATOM      6  N   UNL     1      16.136  21.696  14.698  0.00  0.00    -0.242 NA
ATOM      7  C   UNL     1      16.100  21.851  16.028  0.00  0.00    +0.099 A 
ENDROOT
BRANCH   1  12
ATOM      8  C   UNL     1      17.385  23.291  20.224  0.00  0.00    +0.175 A 
ATOM      9  C   UNL     1      16.239  23.783  20.817  0.00  0.00    +0.206 A 
ATOM     10  C   UNL     1      15.112  23.980  20.051  0.00  0.00    +0.175 A 
ATOM     11  C   UNL     1      15.149  23.730  18.696  0.00  0.00    +0.040 A 
ATOM     12  C   UNL     1      16.316  23.263  18.073  0.00  0.00    +0.007 A 
ATOM     13  C   UNL     1      17.434  23.015  18.868  0.00  0.00    +0.040 A 
BRANCH   8  15
ATOM     14  C   UNL     1      19.013  21.755  21.043  0.00  0.00    +0.253 C 
ATOM     15  O   UNL     1      18.420  23.075  21.076  0.00  0.00    -0.468 OA
ENDBRANCH   8  15
BRANCH   9  16
ATOM     16  O   UNL     1      16.215  24.084  22.157  0.00  0.00    -0.465 OA
ATOM     17  C   UNL     1      15.740  23.120  23.035  0.00  0.00    +0.253 C 
ENDBRANCH   9  16
BRANCH  10  18
ATOM     18  O   UNL     1      13.999  24.467  20.717  0.00  0.00    -0.468 OA
ATOM     19  C   UNL     1      12.765  23.741  20.732  0.00  0.00    +0.253 C 
ENDBRANCH  10  18
ENDBRANCH   1  12
BRANCH   4  20
ATOM     20  C   UNL     1      16.825  25.060  13.350  0.00  0.00    +0.001 A 
ATOM     21  C   UNL     1      15.729  25.808  12.786  0.00  0.00    -0.000 A 
ATOM     22  C   UNL     1      15.916  26.805  11.862  0.00  0.00    -0.004 A 
ATOM     23  C   UNL     1      17.206  27.102  11.393  0.00  0.00    -0.022 A 
ATOM     24  C   UNL     1      18.276  26.376  11.960  0.00  0.00    -0.004 A 
ATOM     25  C   UNL     1      18.104  25.378  12.850  0.00  0.00    -0.000 A 
BRANCH  23  26
ATOM     26  C   UNL     1      17.326  28.248  10.455  0.00  0.00    +0.025 C 
ATOM     27  C   UNL     1      18.176  29.384  10.943  0.00  0.00    +0.022 C 
ATOM     28  C   UNL     1      18.302  30.358   9.775  0.00  0.00    +0.072 C 
ATOM     29  N   UNL     1      16.998  31.017   9.478  0.00  0.00    -0.271 NA
ATOM     30  C   UNL     1      16.571  31.897  10.595  0.00  0.00    +0.090 C 
ATOM     31  C   UNL     1      15.967  30.015   9.111  0.00  0.00    +0.072 C 
ATOM     32  C   UNL     1      15.948  28.751   9.995  0.00  0.00    +0.022 C 
ENDBRANCH  23  26
ENDBRANCH   4  20
TORSDOF 6
ENDMDL
MODEL 3
REMARK VINA RESULT:      -7.9      9.700     13.771
REMARK  Name = 5S88_LU8.pdb
REMARK  6 active torsions:
REMARK  status: ('A' for Active; 'I' for Inactive)
REMARK    1  A    between atoms: _2  and  _3
REMARK    2  A    between atoms: _5  and  _6
REMARK    3  A    between atoms: _10  and  _11
REMARK    4  A    between atoms: _14  and  _15
REMARK    5  A    between atoms: _27  and  _28
REMARK    6  A    between atoms: _30  and  _31
REMARK                            x       y       z     vdW  Elec       q    Type
REMARK                         _______ _______ _______ _____ _____    ______ ____
ROOT
ATOM      1  C   UNL     1       6.610  24.511  18.527  0.00  0.00    +0.015 A 
ATOM      2  C   UNL     1       7.567  23.715  19.139  0.00  0.00    -0.019 A 
ATOM      3  C   UNL     1       8.699  23.171  18.320  0.00  0.00    +0.031 C 
ATOM      4  C   UNL     1       7.526  23.436  20.537  0.00  0.00    +0.015 A 
ATOM      5  C   UNL     1       6.513  24.068  21.205  0.00  0.00    +0.099 A 
ATOM      6  N   UNL     1       5.623  24.835  20.646  0.00  0.00    -0.242 NA
ATOM      7  C   UNL     1       5.637  25.070  19.329  0.00  0.00    +0.099 A 
ENDROOT
BRANCH   1  12
ATOM      8  C   UNL     1       6.248  24.263  14.764  0.00  0.00    +0.175 A 
ATOM      9  C   UNL     1       6.646  25.524  14.370  0.00  0.00    +0.206 A 
ATOM     10  C   UNL     1       7.092  26.420  15.317  0.00  0.00    +0.175 A 
ATOM     11  C   UNL     1       7.093  26.067  16.650  0.00  0.00    +0.040 A 
ATOM     12  C   UNL     1       6.659  24.800  17.068  0.00  0.00    +0.007 A 
ATOM     13  C   UNL     1       6.262  23.884  16.095  0.00  0.00    +0.040 A 
BRANCH   8  15
ATOM     14  C   UNL     1       5.174  22.233  14.124  0.00  0.00    +0.253 C 
ATOM     15  O   UNL     1       5.884  23.437  13.749  0.00  0.00    -0.468 OA
ENDBRANCH   8  15
BRANCH   9  16
ATOM     16  O   UNL     1       6.595  25.897  13.049  0.00  0.00    -0.465 OA
ATOM     17  C   UNL     1       5.449  26.533  12.593  0.00  0.00    +0.253 C 
ENDBRANCH   9  16
BRANCH  10  18
ATOM     18  O   UNL     1       7.482  27.663  14.846  0.00  0.00    -0.468 OA
ATOM     19  C   UNL     1       6.931  28.869  15.386  0.00  0.00    +0.253 C 
ENDBRANCH  10  18
ENDBRANCH   1  12
BRANCH   4  20
ATOM     20  C   UNL     1       8.488  22.594  21.261  0.00  0.00    +0.001 A 
ATOM     21  C   UNL     1       9.685  23.168  21.822  0.00  0.00    -0.000 A 
ATOM     22  C   UNL     1      10.618  22.417  22.492  0.00  0.00    -0.004 A 
ATOM     23  C   UNL     1      10.452  21.027  22.615  0.00  0.00    -0.022 A 
ATOM     24  C   UNL     1       9.270  20.475  22.077  0.00  0.00    -0.004 A 
ATOM     25  C   UNL     1       8.358  21.197  21.395  0.00  0.00    -0.000 A 
BRANCH  23  26
ATOM     26  C   UNL     1      11.468  20.305  23.424  0.00  0.00    +0.025 C 
ATOM     27  C   UNL     1      10.942  19.143  24.214  0.00  0.00    +0.022 C 
ATOM     28  C   UNL     1      12.159  18.451  24.822  0.00  0.00    +0.072 C 
ATOM     29  N   UNL     1      12.801  19.304  25.864  0.00  0.00    -0.271 NA
ATOM     30  C   UNL     1      11.908  19.488  27.036  0.00  0.00    +0.090 C 
ATOM     31  C   UNL     1      13.263  20.591  25.287  0.00  0.00    +0.072 C 
ATOM     32  C   UNL     1      12.265  21.264  24.323  0.00  0.00    +0.022 C 
ENDBRANCH  23  26
ENDBRANCH   4  20
TORSDOF 6
ENDMDL
MODEL 4
REMARK VINA RESULT:      -7.8      8.208     11.182
REMARK  Name = 5S88_LU8.pdb
REMARK  6 active torsions:
REMARK  status: ('A' for Active; 'I' for Inactive)
REMARK    1  A    between atoms: _2  and  _3
REMARK    2  A    between atoms: _5  and  _6
REMARK    3  A    between atoms: _10  and  _11
REMARK    4  A    between atoms: _14  and  _15
REMARK    5  A    between atoms: _27  and  _28
REMARK    6  A    between atoms: _30  and  _31
REMARK                            x       y       z     vdW  Elec       q    Type
REMARK                         _______ _______ _______ _____ _____    ______ ____
ROOT
ATOM      1  C   UNL     1       6.894  26.790  14.777  0.00  0.00    +0.015 A 
ATOM      2  C   UNL     1       8.217  26.522  15.097  0.00  0.00    -0.019 A 
ATOM      3  C   UNL     1       8.891  25.332  14.483  0.00  0.00    +0.031 C 
ATOM      4  C   UNL     1       8.965  27.373  15.962  0.00  0.00    +0.015 A 
ATOM      5  C   UNL     1       8.287  28.484  16.380  0.00  0.00    +0.099 A 
ATOM      6  N   UNL     1       7.053  28.759  16.069  0.00  0.00    -0.242 NA
ATOM      7  C   UNL     1       6.336  27.944  15.287  0.00  0.00    +0.099 A 
ENDROOT
BRANCH   1  12
ATOM      8  C   UNL     1       5.188  25.294  11.743  0.00  0.00    +0.175 A 
ATOM      9  C   UNL     1       4.789  24.068  12.235  0.00  0.00    +0.206 A 
ATOM     10  C   UNL     1       5.014  23.763  13.559  0.00  0.00    +0.175 A 
ATOM     11  C   UNL     1       5.675  24.663  14.368  0.00  0.00    +0.040 A 
ATOM     12  C   UNL     1       6.118  25.899  13.874  0.00  0.00    +0.007 A 
ATOM     13  C   UNL     1       5.835  26.218  12.546  0.00  0.00    +0.040 A 
BRANCH   8  15
ATOM     14  C   UNL     1       5.967  25.815   9.551  0.00  0.00    +0.253 C 
ATOM     15  O   UNL     1       4.866  25.519  10.443  0.00  0.00    -0.468 OA
ENDBRANCH   8  15
BRANCH   9  16
ATOM     16  O   UNL     1       4.178  23.147  11.418  0.00  0.00    -0.465 OA
ATOM     17  C   UNL     1       4.981  22.245  10.735  0.00  0.00    +0.253 C 
ENDBRANCH   9  16
BRANCH  10  18
ATOM     18  O   UNL     1       4.579  22.519  13.983  0.00  0.00    -0.468 OA
ATOM     19  C   UNL     1       5.440  21.638  14.713  0.00  0.00    +0.253 C 
ENDBRANCH  10  18
ENDBRANCH   1  12
BRANCH   4  20
ATOM     20  C   UNL     1      10.363  27.156  16.363  0.00  0.00    +0.001 A 
ATOM     21  C   UNL     1      10.673  26.418  17.563  0.00  0.00    -0.000 A 
ATOM     22  C   UNL     1      11.962  26.205  17.984  0.00  0.00    -0.004 A 
ATOM     23  C   UNL     1      13.040  26.750  17.266  0.00  0.00    -0.022 A 
ATOM     24  C   UNL     1      12.729  27.458  16.085  0.00  0.00    -0.004 A 
ATOM     25  C   UNL     1      11.467  27.696  15.674  0.00  0.00    -0.000 A 
BRANCH  23  26
ATOM     26  C   UNL     1      14.402  26.403  17.747  0.00  0.00    +0.025 C 
ATOM     27  C   UNL     1      15.391  26.072  16.669  0.00  0.00    +0.022 C 
ATOM     28  C   UNL     1      16.744  25.919  17.360  0.00  0.00    +0.072 C 
ATOM     29  N   UNL     1      16.773  24.706  18.227  0.00  0.00    -0.271 NA
ATOM     30  C   UNL     1      16.673  23.464  17.421  0.00  0.00    +0.090 C 
ATOM     31  C   UNL     1      15.739  24.787  19.288  0.00  0.00    +0.072 C 
ATOM     32  C   UNL     1      14.363  25.297  18.815  0.00  0.00    +0.022 C 
ENDBRANCH  23  26
ENDBRANCH   4  20
TORSDOF 6
ENDMDL
MODEL 5
REMARK VINA RESULT:      -7.8      9.863     13.823
REMARK  Name = 5S88_LU8.pdb
REMARK  6 active torsions:
REMARK  status: ('A' for Active; 'I' for Inactive)
REMARK    1  A    between atoms: _2  and  _3
REMARK    2  A    between atoms: _5  and  _6
REMARK    3  A    between atoms: _10  and  _11
REMARK    4  A    between atoms: _14  and  _15
REMARK    5  A    between atoms: _27  and  _28
REMARK    6  A    between atoms: _30  and  _31
REMARK                            x       y       z     vdW  Elec       q    Type
REMARK                         _______ _______ _______ _____ _____    ______ ____
ROOT
ATOM      1  C   UNL     1       6.449  24.800  18.770  0.00  0.00    +0.015 A 
ATOM      2  C   UNL     1       7.393  23.943  19.315  0.00  0.00    -0.019 A 
ATOM      3  C   UNL     1       8.492  23.415  18.441  0.00  0.00    +0.031 C 
ATOM      4  C   UNL     1       7.372  23.585  20.695  0.00  0.00    +0.015 A 
ATOM      5  C   UNL     1       6.393  24.206  21.420  0.00  0.00    +0.099 A 
ATOM      6  N   UNL     1       5.515  25.029  20.926  0.00  0.00    -0.242 NA
ATOM      7  C   UNL     1       5.509  25.339  19.624  0.00  0.00    +0.099 A 
ENDROOT
BRANCH   1  12
ATOM      8  C   UNL     1       6.984  26.654  15.510  0.00  0.00    +0.175 A 
ATOM      9  C   UNL     1       6.633  25.688  14.589  0.00  0.00    +0.206 A 
ATOM     10  C   UNL     1       6.163  24.471  15.030  0.00  0.00    +0.175 A 
ATOM     11  C   UNL     1       6.091  24.212  16.382  0.00  0.00    +0.040 A 
ATOM     12  C   UNL     1       6.477  25.172  17.330  0.00  0.00    +0.007 A 
ATOM     13  C   UNL     1       6.898  26.419  16.871  0.00  0.00    +0.040 A 
BRANCH   8  15
ATOM     14  C   UNL     1       6.443  28.937  15.089  0.00  0.00    +0.253 C 
ATOM     15  O   UNL     1       7.377  27.838  14.972  0.00  0.00    -0.468 OA
ENDBRANCH   8  15
BRANCH   9  16
ATOM     16  O   UNL     1       6.756  25.924  13.241  0.00  0.00    -0.465 OA
ATOM     17  C   UNL     1       5.631  26.347  12.547  0.00  0.00    +0.253 C 
ENDBRANCH   9  16
BRANCH  10  18
ATOM     18  O   UNL     1       5.823  23.555  14.049  0.00  0.00    -0.468 OA
ATOM     19  C   UNL     1       6.728  22.518  13.654  0.00  0.00    +0.253 C 
ENDBRANCH  10  18
ENDBRANCH   1  12
BRANCH   4  20
ATOM     20  C   UNL     1       8.323  22.675  21.349  0.00  0.00    +0.001 A 
ATOM     21  C   UNL     1       9.543  23.182  21.926  0.00  0.00    -0.000 A 
ATOM     22  C   UNL     1      10.467  22.368  22.531  0.00  0.00    -0.004 A 
ATOM     23  C   UNL     1      10.267  20.977  22.568  0.00  0.00    -0.022 A 
ATOM     24  C   UNL     1       9.064  20.490  22.015  0.00  0.00    -0.004 A 
ATOM     25  C   UNL     1       8.160  21.276  21.395  0.00  0.00    -0.000 A 
BRANCH  23  26
ATOM     26  C   UNL     1      11.276  20.180  23.314  0.00  0.00    +0.025 C 
ATOM     27  C   UNL     1      10.730  18.993  24.050  0.00  0.00    +0.022 C 
ATOM     28  C   UNL     1      11.937  18.232  24.590  0.00  0.00    +0.072 C 
ATOM     29  N   UNL     1      12.626  19.005  25.664  0.00  0.00    -0.271 NA
ATOM     30  C   UNL     1      11.764  19.150  26.863  0.00  0.00    +0.090 C 
ATOM     31  C   UNL     1      13.117  20.308  25.149  0.00  0.00    +0.072 C 
ATOM     32  C   UNL     1      12.121  21.064  24.246  0.00  0.00    +0.022 C 
ENDBRANCH  23  26
ENDBRANCH   4  20
TORSDOF 6
ENDMDL
MODEL 6
REMARK VINA RESULT:      -7.8      6.685      8.070
REMARK  Name = 5S88_LU8.pdb
REMARK  6 active torsions:
REMARK  status: ('A' for Active; 'I' for Inactive)
REMARK    1  A    between atoms: _2  and  _3
REMARK    2  A    between atoms: _5  and  _6
REMARK    3  A    between atoms: _10  and  _11
REMARK    4  A    between atoms: _14  and  _15
REMARK    5  A    between atoms: _27  and  _28
REMARK    6  A    between atoms: _30  and  _31
REMARK                            x       y       z     vdW  Elec       q    Type
REMARK                         _______ _______ _______ _____ _____    ______ ____
ROOT
ATOM      1  C   UNL     1      12.416  21.977  20.696  0.00  0.00    +0.015 A 
ATOM      2  C   UNL     1      11.682  23.010  20.132  0.00  0.00    -0.019 A 
ATOM      3  C   UNL     1      10.514  23.572  20.886  0.00  0.00    +0.031 C 
ATOM      4  C   UNL     1      12.034  23.579  18.874  0.00  0.00    +0.015 A 
ATOM      5  C   UNL     1      13.176  23.063  18.325  0.00  0.00    +0.099 A 
ATOM      6  N   UNL     1      13.887  22.110  18.854  0.00  0.00    -0.242 NA
ATOM      7  C   UNL     1      13.538  21.548  20.018  0.00  0.00    +0.099 A 
ENDROOT
BRANCH   1  12
ATOM      8  C   UNL     1      10.824  19.856  23.402  0.00  0.00    +0.175 A 
ATOM      9  C   UNL     1      11.553  20.240  24.509  0.00  0.00    +0.206 A 
ATOM     10  C   UNL     1      12.505  21.228  24.385  0.00  0.00    +0.175 A 
ATOM     11  C   UNL     1      12.753  21.791  23.151  0.00  0.00    +0.040 A 
ATOM     12  C   UNL     1      12.044  21.387  22.010  0.00  0.00    +0.007 A 
ATOM     13  C   UNL     1      11.046  20.426  22.159  0.00  0.00    +0.040 A 
BRANCH   8  15
ATOM     14  C   UNL     1       8.822  18.802  22.652  0.00  0.00    +0.253 C 
ATOM     15  O   UNL     1       9.870  18.920  23.643  0.00  0.00    -0.468 OA
ENDBRANCH   8  15
BRANCH   9  16
ATOM     16  O   UNL     1      11.345  19.643  25.729  0.00  0.00    -0.465 OA
ATOM     17  C   UNL     1      12.070  18.498  26.028  0.00  0.00    +0.253 C 
ENDBRANCH   9  16
BRANCH  10  18
ATOM     18  O   UNL     1      13.190  21.565  25.540  0.00  0.00    -0.468 OA
ATOM     19  C   UNL     1      14.592  21.310  25.675  0.00  0.00    +0.253 C 
ENDBRANCH  10  18
ENDBRANCH   1  12
BRANCH   4  20
ATOM     20  C   UNL     1      11.305  24.663  18.200  0.00  0.00    +0.001 A 
ATOM     21  C   UNL     1      10.006  24.422  17.622  0.00  0.00    -0.000 A 
ATOM     22  C   UNL     1       9.296  25.399  16.970  0.00  0.00    -0.004 A 
ATOM     23  C   UNL     1       9.847  26.681  16.803  0.00  0.00    -0.022 A 
ATOM     24  C   UNL     1      11.112  26.914  17.384  0.00  0.00    -0.004 A 
ATOM     25  C   UNL     1      11.830  25.956  18.005  0.00  0.00    -0.000 A 
BRANCH  23  26
ATOM     26  C   UNL     1       8.978  27.699  16.157  0.00  0.00    +0.025 C 
ATOM     27  C   UNL     1       7.818  28.163  16.988  0.00  0.00    +0.022 C 
ATOM     28  C   UNL     1       7.173  29.312  16.217  0.00  0.00    +0.072 C 
ATOM     29  N   UNL     1       6.520  28.826  14.968  0.00  0.00    -0.271 NA
ATOM     30  C   UNL     1       5.365  27.943  15.271  0.00  0.00    +0.090 C 
ATOM     31  C   UNL     1       7.509  28.186  14.065  0.00  0.00    +0.072 C 
ATOM     32  C   UNL     1       8.511  27.245  14.765  0.00  0.00    +0.022 C 
ENDBRANCH  23  26
ENDBRANCH   4  20
TORSDOF 6
ENDMDL
MODEL 7
REMARK VINA RESULT:      -7.7      8.503     11.971
REMARK  Name = 5S88_LU8.pdb
REMARK  6 active torsions:
REMARK  status: ('A' for Active; 'I' for Inactive)
REMARK    1  A    between atoms: _2  and  _3
REMARK    2  A    between atoms: _5  and  _6
REMARK    3  A    between atoms: _10  and  _11
REMARK    4  A    between atoms: _14  and  _15
REMARK    5  A    between atoms: _27  and  _28
REMARK    6  A    between atoms: _30  and  _31
REMARK                            x       y       z     vdW  Elec       q    Type
REMARK                         _______ _______ _______ _____ _____    ______ ____
ROOT
ATOM      1  C   UNL     1       6.797  27.841  14.691  0.00  0.00    +0.015 A 
ATOM      2  C   UNL     1       7.950  27.196  15.113  0.00  0.00    -0.019 A 
ATOM      3  C   UNL     1       8.505  26.075  14.286  0.00  0.00    +0.031 C 
ATOM      4  C   UNL     1       8.646  27.599  16.290  0.00  0.00    +0.015 A 
ATOM      5  C   UNL     1       8.112  28.696  16.908  0.00  0.00    +0.099 A 
ATOM      6  N   UNL     1       7.044  29.324  16.511  0.00  0.00    -0.242 NA
ATOM      7  C   UNL     1       6.368  28.926  15.426  0.00  0.00    +0.099 A 
ENDROOT
BRANCH   1  12
ATOM      8  C   UNL     1       5.155  27.804  11.277  0.00  0.00    +0.175 A 
ATOM      9  C   UNL     1       4.863  26.463  11.132  0.00  0.00    +0.206 A 
ATOM     10  C   UNL     1       5.137  25.594  12.165  0.00  0.00    +0.175 A 
ATOM     11  C   UNL     1       5.741  26.062  13.313  0.00  0.00    +0.040 A 
ATOM     12  C   UNL     1       6.075  27.416  13.461  0.00  0.00    +0.007 A 
ATOM     13  C   UNL     1       5.742  28.294  12.431  0.00  0.00    +0.040 A 
BRANCH   8  15
ATOM     14  C   UNL     1       5.844  28.955   9.307  0.00  0.00    +0.253 C 
ATOM     15  O   UNL     1       4.790  28.584  10.226  0.00  0.00    -0.468 OA
ENDBRANCH   8  15
BRANCH   9  16
ATOM     16  O   UNL     1       4.310  25.985   9.968  0.00  0.00    -0.465 OA
ATOM     17  C   UNL     1       5.165  25.482   8.998  0.00  0.00    +0.253 C 
ENDBRANCH   9  16
BRANCH  10  18
ATOM     18  O   UNL     1       4.809  24.266  11.951  0.00  0.00    -0.468 OA
ATOM     19  C   UNL     1       3.950  23.557  12.851  0.00  0.00    +0.253 C 
ENDBRANCH  10  18
ENDBRANCH   1  12
BRANCH   4  20
ATOM     20  C   UNL     1       9.863  26.964  16.815  0.00  0.00    +0.001 A 
ATOM     21  C   UNL     1      11.163  27.502  16.501  0.00  0.00    -0.000 A 
ATOM     22  C   UNL     1      12.326  26.933  16.955  0.00  0.00    -0.004 A 
ATOM     23  C   UNL     1      12.285  25.755  17.720  0.00  0.00    -0.022 A 
ATOM     24  C   UNL     1      11.008  25.242  18.036  0.00  0.00    -0.004 A 
ATOM     25  C   UNL     1       9.860  25.777  17.575  0.00  0.00    -0.000 A 
BRANCH  23  26
ATOM     26  C   UNL     1      13.584  25.253  18.237  0.00  0.00    +0.025 C 
ATOM     27  C   UNL     1      14.781  25.614  17.409  0.00  0.00    +0.022 C 
ATOM     28  C   UNL     1      16.004  25.157  18.200  0.00  0.00    +0.072 C 
ATOM     29  N   UNL     1      16.078  23.669  18.268  0.00  0.00    -0.271 NA
ATOM     30  C   UNL     1      16.315  23.079  16.926  0.00  0.00    +0.090 C 
ATOM     31  C   UNL     1      14.880  23.107  18.938  0.00  0.00    +0.072 C 
ATOM     32  C   UNL     1      13.540  23.740  18.509  0.00  0.00    +0.022 C 
ENDBRANCH  23  26
ENDBRANCH   4  20
TORSDOF 6
ENDMDL
MODEL 8
REMARK VINA RESULT:      -7.7      7.469     10.719
REMARK  Name = 5S88_LU8.pdb
REMARK  6 active torsions:
REMARK  status: ('A' for Active; 'I' for Inactive)
REMARK    1  A    between atoms: _2  and  _3
REMARK    2  A    between atoms: _5  and  _6
REMARK    3  A    between atoms: _10  and  _11
REMARK    4  A    between atoms: _14  and  _15
REMARK    5  A    between atoms: _27  and  _28
REMARK    6  A    between atoms: _30  and  _31
REMARK                            x       y       z     vdW  Elec       q    Type
REMARK                         _______ _______ _______ _____ _____    ______ ____
ROOT
ATOM      1  C   UNL     1       8.536  23.825  18.189  0.00  0.00    +0.015 A 
ATOM      2  C   UNL     1       9.900  24.013  18.349  0.00  0.00    -0.019 A 
ATOM      3  C   UNL     1      10.612  24.993  17.464  0.00  0.00    +0.031 C 
ATOM      4  C   UNL     1      10.637  23.332  19.362  0.00  0.00    +0.015 A 
ATOM      5  C   UNL     1       9.871  22.546  20.178  0.00  0.00    +0.099 A 
ATOM      6  N   UNL     1       8.587  22.377  20.053  0.00  0.00    -0.242 NA
ATOM      7  C   UNL     1       7.899  22.987  19.081  0.00  0.00    +0.099 A 
ENDROOT
BRANCH   1  12
ATOM      8  C   UNL     1       6.364  24.613  15.186  0.00  0.00    +0.175 A 
ATOM      9  C   UNL     1       6.234  25.983  15.299  0.00  0.00    +0.206 A 
ATOM     10  C   UNL     1       6.904  26.646  16.303  0.00  0.00    +0.175 A 
ATOM     11  C   UNL     1       7.658  25.935  17.212  0.00  0.00    +0.040 A 
ATOM     12  C   UNL     1       7.772  24.539  17.131  0.00  0.00    +0.007 A 
ATOM     13  C   UNL     1       7.134  23.886  16.077  0.00  0.00    +0.040 A 
BRANCH   8  15
ATOM     14  C   UNL     1       6.543  23.592  13.040  0.00  0.00    +0.253 C 
ATOM     15  O   UNL     1       5.714  24.064  14.128  0.00  0.00    -0.468 OA
ENDBRANCH   8  15
BRANCH   9  16
ATOM     16  O   UNL     1       5.440  26.688  14.427  0.00  0.00    -0.465 OA
ATOM     17  C   UNL     1       6.047  27.308  13.345  0.00  0.00    +0.253 C 
ENDBRANCH   9  16
BRANCH  10  18
ATOM     18  O   UNL     1       6.732  28.020  16.348  0.00  0.00    -0.468 OA
ATOM     19  C   UNL     1       7.790  28.888  16.769  0.00  0.00    +0.253 C 
ENDBRANCH  10  18
ENDBRANCH   1  12
BRANCH   4  20
ATOM     20  C   UNL     1      12.083  23.463  19.591  0.00  0.00    +0.001 A 
ATOM     21  C   UNL     1      13.020  22.694  18.811  0.00  0.00    -0.000 A 
ATOM     22  C   UNL     1      14.376  22.772  19.002  0.00  0.00    -0.004 A 
ATOM     23  C   UNL     1      14.902  23.589  20.017  0.00  0.00    -0.022 A 
ATOM     24  C   UNL     1      13.980  24.351  20.766  0.00  0.00    -0.004 A 
ATOM     25  C   UNL     1      12.644  24.264  20.606  0.00  0.00    -0.000 A 
BRANCH  23  26
ATOM     26  C   UNL     1      16.383  23.676  20.100  0.00  0.00    +0.025 C 
ATOM     27  C   UNL     1      17.127  22.821  19.117  0.00  0.00    +0.022 C 
ATOM     28  C   UNL     1      18.601  23.190  19.257  0.00  0.00    +0.072 C 
ATOM     29  N   UNL     1      19.147  22.744  20.572  0.00  0.00    -0.271 NA
ATOM     30  C   UNL     1      19.167  21.263  20.674  0.00  0.00    +0.090 C 
ATOM     31  C   UNL     1      18.420  23.387  21.695  0.00  0.00    +0.072 C 
ATOM     32  C   UNL     1      16.887  23.433  21.532  0.00  0.00    +0.022 C 
ENDBRANCH  23  26
ENDBRANCH   4  20
TORSDOF 6
ENDMDL
MODEL 9
REMARK VINA RESULT:      -7.7      7.891     11.066
REMARK  Name = 5S88_LU8.pdb
REMARK  6 active torsions:
REMARK  status: ('A' for Active; 'I' for Inactive)
REMARK    1  A    between atoms: _2  and  _3
REMARK    2  A    between atoms: _5  and  _6
REMARK    3  A    between atoms: _10  and  _11
REMARK    4  A    between atoms: _14  and  _15
REMARK    5  A    between atoms: _27  and  _28
REMARK    6  A    between atoms: _30  and  _31
REMARK                            x       y       z     vdW  Elec       q    Type
REMARK                         _______ _______ _______ _____ _____    ______ ____
ROOT
ATOM      1  C   UNL     1       7.063  26.105  15.675  0.00  0.00    +0.015 A 
ATOM      2  C   UNL     1       8.422  25.933  15.890  0.00  0.00    -0.019 A 
ATOM      3  C   UNL     1       9.165  24.906  15.089  0.00  0.00    +0.031 C 
ATOM      4  C   UNL     1       9.141  26.738  16.822  0.00  0.00    +0.015 A 
ATOM      5  C   UNL     1       8.388  27.712  17.417  0.00  0.00    +0.099 A 
ATOM      6  N   UNL     1       7.118  27.899  17.208  0.00  0.00    -0.242 NA
ATOM      7  C   UNL     1       6.432  27.122  16.361  0.00  0.00    +0.099 A 
ENDROOT
BRANCH   1  12
ATOM      8  C   UNL     1       5.207  23.244  14.024  0.00  0.00    +0.175 A 
ATOM      9  C   UNL     1       4.778  23.840  12.856  0.00  0.00    +0.206 A 
ATOM     10  C   UNL     1       5.148  25.137  12.580  0.00  0.00    +0.175 A 
ATOM     11  C   UNL     1       5.904  25.844  13.492  0.00  0.00    +0.040 A 
ATOM     12  C   UNL     1       6.319  25.263  14.700  0.00  0.00    +0.007 A 
ATOM     13  C   UNL     1       5.983  23.932  14.941  0.00  0.00    +0.040 A 
BRANCH   8  15
ATOM     14  C   UNL     1       5.885  21.020  14.546  0.00  0.00    +0.253 C 
ATOM     15  O   UNL     1       4.838  21.945  14.172  0.00  0.00    -0.468 OA
ENDBRANCH   8  15
BRANCH   9  16
ATOM     16  O   UNL     1       3.980  23.156  11.970  0.00  0.00    -0.465 OA
ATOM     17  C   UNL     1       4.596  22.415  10.972  0.00  0.00    +0.253 C 
ENDBRANCH   9  16
BRANCH  10  18
ATOM     18  O   UNL     1       4.687  25.664  11.385  0.00  0.00    -0.468 OA
ATOM     19  C   UNL     1       5.070  26.974  10.953  0.00  0.00    +0.253 C 
ENDBRANCH  10  18
ENDBRANCH   1  12
BRANCH   4  20
ATOM     20  C   UNL     1      10.575  26.614  17.120  0.00  0.00    +0.001 A 
ATOM     21  C   UNL     1      11.049  25.593  18.021  0.00  0.00    -0.000 A 
ATOM     22  C   UNL     1      12.375  25.450  18.341  0.00  0.00    -0.004 A 
ATOM     23  C   UNL     1      13.328  26.344  17.823  0.00  0.00    -0.022 A 
ATOM     24  C   UNL     1      12.859  27.331  16.930  0.00  0.00    -0.004 A 
ATOM     25  C   UNL     1      11.555  27.498  16.627  0.00  0.00    -0.000 A 
BRANCH  23  26
ATOM     26  C   UNL     1      14.749  26.067  18.155  0.00  0.00    +0.025 C 
ATOM     27  C   UNL     1      15.691  26.088  16.988  0.00  0.00    +0.022 C 
ATOM     28  C   UNL     1      17.096  25.956  17.568  0.00  0.00    +0.072 C 
ATOM     29  N   UNL     1      17.314  24.601  18.153  0.00  0.00    -0.271 NA
ATOM     30  C   UNL     1      17.292  23.551  17.103  0.00  0.00    +0.090 C 
ATOM     31  C   UNL     1      16.353  24.335  19.251  0.00  0.00    +0.072 C 
ATOM     32  C   UNL     1      14.901  24.766  18.961  0.00  0.00    +0.022 C 
ENDBRANCH  23  26
ENDBRANCH   4  20
TORSDOF 6
ENDMDL
