MODEL 1
REMARK VINA RESULT:      -4.8      0.000      0.000
REMARK  Name = 6GIP_EUN.pdb
REMARK  3 active torsions:
REMARK  status: ('A' for Active; 'I' for Inactive)
REMARK    1  A    between atoms: _1  and  _2
REMARK    2  A    between atoms: _9  and  _10
REMARK    3  A    between atoms: _20  and  _21
REMARK                            x       y       z     vdW  Elec       q    Type
REMARK                         _______ _______ _______ _____ _____    ______ ____
ROOT
ATOM      1  C   UNL     1      28.272  19.661  25.922  0.00  0.00    +0.086 C 
ATOM      2  C   UNL     1      28.000  19.206  24.513  0.00  0.00    +0.107 A 
ATOM      3  N   UNL     1      28.268  20.114  23.453  0.00  0.00    -0.234 NA
ATOM      4  C   UNL     1      28.021  19.708  22.080  0.00  0.00    +0.078 A 
ATOM      5  C   UNL     1      28.315  20.656  21.068  0.00  0.00    +0.029 A 
ATOM      6  C   UNL     1      28.128  20.359  19.737  0.00  0.00    +0.011 A 
ATOM      7  C   UNL     1      27.621  19.126  19.377  0.00  0.00    -0.013 A 
ATOM      8  C   UNL     1      27.324  18.168  20.373  0.00  0.00    -0.028 A 
ATOM      9  C   UNL     1      26.790  16.811  19.974  0.00  0.00    +0.045 C 
ATOM     10  C   UNL     1      27.532  18.478  21.761  0.00  0.00    +0.068 A 
ATOM     11  C   UNL     1      27.242  17.510  22.893  0.00  0.00    +0.259 A 
ATOM     12  O   UNL     1      26.796  16.398  22.669  0.00  0.00    -0.267 OA
ATOM     13  N   UNL     1      27.487  17.906  24.223  0.00  0.00    -0.311 N 
ATOM     14  H   UNL     1      27.316  17.325  24.907  0.00  0.00    +0.170 HD
ENDROOT
BRANCH   7  15
ATOM     15  C   UNL     1      27.453  18.858  18.018  0.00  0.00    -0.007 A 
ATOM     16  C   UNL     1      26.207  19.011  17.325  0.00  0.00    +0.008 A 
ATOM     17  C   UNL     1      25.044  19.474  17.989  0.00  0.00    +0.010 A 
ATOM     18  C   UNL     1      23.840  19.609  17.296  0.00  0.00    +0.001 A 
ATOM     19  C   UNL     1      23.772  19.282  15.945  0.00  0.00    +0.002 A 
ATOM     20  C   UNL     1      24.912  18.825  15.297  0.00  0.00    +0.028 A 
ATOM     21  C   UNL     1      26.137  18.690  16.005  0.00  0.00    +0.072 A 
ATOM     22  N   UNL     1      27.256  18.240  15.324  0.00  0.00    -0.255 NA
ATOM     23  C   UNL     1      28.441  18.092  15.946  0.00  0.00    +0.112 A 
ATOM     24  C   UNL     1      28.550  18.396  17.309  0.00  0.00    +0.029 A 
ENDBRANCH   7  15
TORSDOF 1
ENDMDL
MODEL 2
REMARK VINA RESULT:      -4.7      1.334      2.538
REMARK  Name = 6GIP_EUN.pdb
REMARK  3 active torsions:
REMARK  status: ('A' for Active; 'I' for Inactive)
REMARK    1  A    between atoms: _1  and  _2
REMARK    2  A    between atoms: _9  and  _10
REMARK    3  A    between atoms: _20  and  _21
REMARK                            x       y       z     vdW  Elec       q    Type
REMARK                         _______ _______ _______ _____ _____    ______ ____
ROOT
ATOM      1  C   UNL     1      28.275  17.603  25.976  0.00  0.00    +0.086 C 
ATOM      2  C   UNL     1      27.853  17.584  24.532  0.00  0.00    +0.107 A 
ATOM      3  N   UNL     1      27.683  18.828  23.868  0.00  0.00    -0.234 NA
ATOM      4  C   UNL     1      27.279  18.848  22.473  0.00  0.00    +0.078 A 
ATOM      5  C   UNL     1      27.133  20.121  21.865  0.00  0.00    +0.029 A 
ATOM      6  C   UNL     1      26.768  20.242  20.544  0.00  0.00    +0.011 A 
ATOM      7  C   UNL     1      26.514  19.108  19.798  0.00  0.00    -0.013 A 
ATOM      8  C   UNL     1      26.656  17.832  20.387  0.00  0.00    -0.028 A 
ATOM      9  C   UNL     1      26.398  16.591  19.562  0.00  0.00    +0.045 C 
ATOM     10  C   UNL     1      27.049  17.708  21.764  0.00  0.00    +0.068 A 
ATOM     11  C   UNL     1      27.227  16.379  22.474  0.00  0.00    +0.259 A 
ATOM     12  O   UNL     1      27.028  15.326  21.894  0.00  0.00    -0.267 OA
ATOM     13  N   UNL     1      27.622  16.364  23.827  0.00  0.00    -0.311 N 
ATOM     14  H   UNL     1      27.733  15.566  24.257  0.00  0.00    +0.170 HD
ENDROOT
BRANCH   7  15
ATOM     15  C   UNL     1      26.154  19.271  18.460  0.00  0.00    -0.007 A 
ATOM     16  C   UNL     1      27.101  19.364  17.387  0.00  0.00    +0.008 A 
ATOM     17  C   UNL     1      28.496  19.274  17.622  0.00  0.00    +0.010 A 
ATOM     18  C   UNL     1      29.400  19.374  16.563  0.00  0.00    +0.001 A 
ATOM     19  C   UNL     1      28.936  19.569  15.266  0.00  0.00    +0.002 A 
ATOM     20  C   UNL     1      27.570  19.661  15.038  0.00  0.00    +0.028 A 
ATOM     21  C   UNL     1      26.651  19.558  16.118  0.00  0.00    +0.072 A 
ATOM     22  N   UNL     1      25.295  19.645  15.852  0.00  0.00    -0.255 NA
ATOM     23  C   UNL     1      24.382  19.555  16.837  0.00  0.00    +0.112 A 
ATOM     24  C   UNL     1      24.806  19.371  18.160  0.00  0.00    +0.029 A 
ENDBRANCH   7  15
TORSDOF 1
ENDMDL
MODEL 3
REMARK VINA RESULT:      -4.7      4.574      7.534
REMARK  Name = 6GIP_EUN.pdb
REMARK  3 active torsions:
REMARK  status: ('A' for Active; 'I' for Inactive)
REMARK    1  A    between atoms: _1  and  _2
REMARK    2  A    between atoms: _9  and  _10
REMARK    3  A    between atoms: _20  and  _21
REMARK                            x       y       z     vdW  Elec       q    Type
REMARK                         _______ _______ _______ _____ _____    ______ ____
ROOT
ATOM      1  C   UNL     1      28.963  20.171  15.508  0.00  0.00    +0.086 C 
ATOM      2  C   UNL     1      27.508  19.827  15.675  0.00  0.00    +0.107 A 
ATOM      3  N   UNL     1      26.716  19.677  14.505  0.00  0.00    -0.234 NA
ATOM      4  C   UNL     1      25.308  19.343  14.628  0.00  0.00    +0.078 A 
ATOM      5  C   UNL     1      24.575  19.200  13.423  0.00  0.00    +0.029 A 
ATOM      6  C   UNL     1      23.239  18.870  13.437  0.00  0.00    +0.011 A 
ATOM      7  C   UNL     1      22.589  18.697  14.644  0.00  0.00    -0.013 A 
ATOM      8  C   UNL     1      23.305  18.833  15.854  0.00  0.00    -0.028 A 
ATOM      9  C   UNL     1      22.597  18.622  17.173  0.00  0.00    +0.045 C 
ATOM     10  C   UNL     1      24.704  19.167  15.836  0.00  0.00    +0.068 A 
ATOM     11  C   UNL     1      25.547  19.330  17.086  0.00  0.00    +0.259 A 
ATOM     12  O   UNL     1      25.061  19.193  18.194  0.00  0.00    -0.267 OA
ATOM     13  N   UNL     1      26.915  19.652  16.962  0.00  0.00    -0.311 N 
ATOM     14  H   UNL     1      27.426  19.749  17.712  0.00  0.00    +0.170 HD
ENDROOT
BRANCH   7  15
ATOM     15  C   UNL     1      21.237  18.355  14.617  0.00  0.00    -0.007 A 
ATOM     16  C   UNL     1      20.753  17.014  14.772  0.00  0.00    +0.008 A 
ATOM     17  C   UNL     1      21.638  15.928  14.987  0.00  0.00    +0.010 A 
ATOM     18  C   UNL     1      21.144  14.630  15.128  0.00  0.00    +0.001 A 
ATOM     19  C   UNL     1      19.775  14.392  15.052  0.00  0.00    +0.002 A 
ATOM     20  C   UNL     1      18.910  15.456  14.837  0.00  0.00    +0.028 A 
ATOM     21  C   UNL     1      19.415  16.777  14.695  0.00  0.00    +0.072 A 
ATOM     22  N   UNL     1      18.522  17.816  14.491  0.00  0.00    -0.255 NA
ATOM     23  C   UNL     1      18.946  19.086  14.349  0.00  0.00    +0.112 A 
ATOM     24  C   UNL     1      20.318  19.368  14.405  0.00  0.00    +0.029 A 
ENDBRANCH   7  15
TORSDOF 1
ENDMDL
MODEL 4
REMARK VINA RESULT:      -4.7      1.816      3.440
REMARK  Name = 6GIP_EUN.pdb
REMARK  3 active torsions:
REMARK  status: ('A' for Active; 'I' for Inactive)
REMARK    1  A    between atoms: _1  and  _2
REMARK    2  A    between atoms: _9  and  _10
REMARK    3  A    between atoms: _20  and  _21
REMARK                            x       y       z     vdW  Elec       q    Type
REMARK                         _______ _______ _______ _____ _____    ______ ____
ROOT
ATOM      1  C   UNL     1      27.873  15.099  24.593  0.00  0.00    +0.086 C 
ATOM      2  C   UNL     1      27.534  16.069  23.495  0.00  0.00    +0.107 A 
ATOM      3  N   UNL     1      27.263  15.548  22.201  0.00  0.00    -0.234 NA
ATOM      4  C   UNL     1      26.930  16.455  21.116  0.00  0.00    +0.078 A 
ATOM      5  C   UNL     1      26.664  15.872  19.851  0.00  0.00    +0.029 A 
ATOM      6  C   UNL     1      26.325  16.648  18.766  0.00  0.00    +0.011 A 
ATOM      7  C   UNL     1      26.267  18.022  18.899  0.00  0.00    -0.013 A 
ATOM      8  C   UNL     1      26.528  18.619  20.153  0.00  0.00    -0.028 A 
ATOM      9  C   UNL     1      26.442  20.122  20.301  0.00  0.00    +0.045 C 
ATOM     10  C   UNL     1      26.870  17.804  21.287  0.00  0.00    +0.068 A 
ATOM     11  C   UNL     1      27.163  18.362  22.667  0.00  0.00    +0.259 A 
ATOM     12  O   UNL     1      27.132  19.562  22.879  0.00  0.00    -0.267 OA
ATOM     13  N   UNL     1      27.482  17.478  23.718  0.00  0.00    -0.311 N 
ATOM     14  H   UNL     1      27.657  17.810  24.551  0.00  0.00    +0.170 HD
ENDROOT
BRANCH   7  15
ATOM     15  C   UNL     1      25.912  18.774  17.780  0.00  0.00    -0.007 A 
ATOM     16  C   UNL     1      26.863  19.353  16.876  0.00  0.00    +0.008 A 
ATOM     17  C   UNL     1      28.258  19.176  17.057  0.00  0.00    +0.010 A 
ATOM     18  C   UNL     1      29.166  19.755  16.169  0.00  0.00    +0.001 A 
ATOM     19  C   UNL     1      28.706  20.517  15.099  0.00  0.00    +0.002 A 
ATOM     20  C   UNL     1      27.340  20.693  14.926  0.00  0.00    +0.028 A 
ATOM     21  C   UNL     1      26.418  20.101  15.831  0.00  0.00    +0.072 A 
ATOM     22  N   UNL     1      25.061  20.290  15.621  0.00  0.00    -0.255 NA
ATOM     23  C   UNL     1      24.144  19.753  16.448  0.00  0.00    +0.112 A 
ATOM     24  C   UNL     1      24.564  18.990  17.546  0.00  0.00    +0.029 A 
ENDBRANCH   7  15
TORSDOF 1
ENDMDL
MODEL 5
REMARK VINA RESULT:      -4.6      8.562     11.670
REMARK  Name = 6GIP_EUN.pdb
REMARK  3 active torsions:
REMARK  status: ('A' for Active; 'I' for Inactive)
REMARK    1  A    between atoms: _1  and  _2
REMARK    2  A    between atoms: _9  and  _10
REMARK    3  A    between atoms: _20  and  _21
REMARK                            x       y       z     vdW  Elec       q    Type
REMARK                         _______ _______ _______ _____ _____    ______ ____
ROOT
ATOM      1  C   UNL     1      18.179  12.110  13.668  0.00  0.00    +0.086 C 
ATOM      2  C   UNL     1      18.275  12.270  15.161  0.00  0.00    +0.107 A 
ATOM      3  N   UNL     1      19.373  13.003  15.687  0.00  0.00    -0.234 NA
ATOM      4  C   UNL     1      19.497  13.179  17.124  0.00  0.00    +0.078 A 
ATOM      5  C   UNL     1      20.610  13.926  17.585  0.00  0.00    +0.029 A 
ATOM      6  C   UNL     1      20.805  14.160  18.927  0.00  0.00    +0.011 A 
ATOM      7  C   UNL     1      19.917  13.639  19.848  0.00  0.00    -0.013 A 
ATOM      8  C   UNL     1      18.801  12.894  19.406  0.00  0.00    -0.028 A 
ATOM      9  C   UNL     1      17.817  12.344  20.415  0.00  0.00    +0.045 C 
ATOM     10  C   UNL     1      18.593  12.662  18.002  0.00  0.00    +0.068 A 
ATOM     11  C   UNL     1      17.423  11.876  17.441  0.00  0.00    +0.259 A 
ATOM     12  O   UNL     1      16.587  11.383  18.178  0.00  0.00    -0.267 OA
ATOM     13  N   UNL     1      17.304  11.710  16.046  0.00  0.00    -0.311 N 
ATOM     14  H   UNL     1      16.600  11.240  15.705  0.00  0.00    +0.170 HD
ENDROOT
BRANCH   7  15
ATOM     15  C   UNL     1      20.143  13.904  21.198  0.00  0.00    -0.007 A 
ATOM     16  C   UNL     1      20.799  12.992  22.089  0.00  0.00    +0.008 A 
ATOM     17  C   UNL     1      21.291  11.742  21.638  0.00  0.00    +0.010 A 
ATOM     18  C   UNL     1      21.921  10.868  22.524  0.00  0.00    +0.001 A 
ATOM     19  C   UNL     1      22.067  11.216  23.863  0.00  0.00    +0.002 A 
ATOM     20  C   UNL     1      21.581  12.440  24.305  0.00  0.00    +0.028 A 
ATOM     21  C   UNL     1      20.940  13.329  23.400  0.00  0.00    +0.072 A 
ATOM     22  N   UNL     1      20.477  14.545  23.873  0.00  0.00    -0.255 NA
ATOM     23  C   UNL     1      19.862  15.424  23.060  0.00  0.00    +0.112 A 
ATOM     24  C   UNL     1      19.682  15.107  21.707  0.00  0.00    +0.029 A 
ENDBRANCH   7  15
TORSDOF 1
ENDMDL
MODEL 6
REMARK VINA RESULT:      -4.6      9.870     12.877
REMARK  Name = 6GIP_EUN.pdb
REMARK  3 active torsions:
REMARK  status: ('A' for Active; 'I' for Inactive)
REMARK    1  A    between atoms: _1  and  _2
REMARK    2  A    between atoms: _9  and  _10
REMARK    3  A    between atoms: _20  and  _21
REMARK                            x       y       z     vdW  Elec       q    Type
REMARK                         _______ _______ _______ _____ _____    ______ ____
ROOT
ATOM      1  C   UNL     1      16.509  11.812  18.814  0.00  0.00    +0.086 C 
ATOM      2  C   UNL     1      17.404  12.060  19.998  0.00  0.00    +0.107 A 
ATOM      3  N   UNL     1      17.917  10.934  20.697  0.00  0.00    -0.234 NA
ATOM      4  C   UNL     1      18.786  11.135  21.844  0.00  0.00    +0.078 A 
ATOM      5  C   UNL     1      19.270   9.972  22.493  0.00  0.00    +0.029 A 
ATOM      6  C   UNL     1      20.112  10.060  23.579  0.00  0.00    +0.011 A 
ATOM      7  C   UNL     1      20.474  11.301  24.064  0.00  0.00    -0.013 A 
ATOM      8  C   UNL     1      20.002  12.471  23.428  0.00  0.00    -0.028 A 
ATOM      9  C   UNL     1      20.418  13.829  23.948  0.00  0.00    +0.045 C 
ATOM     10  C   UNL     1      19.133  12.375  22.286  0.00  0.00    +0.068 A 
ATOM     11  C   UNL     1      18.582  13.578  21.543  0.00  0.00    +0.259 A 
ATOM     12  O   UNL     1      18.851  14.712  21.898  0.00  0.00    -0.267 OA
ATOM     13  N   UNL     1      17.742  13.379  20.429  0.00  0.00    -0.311 N 
ATOM     14  H   UNL     1      17.411  14.100  19.978  0.00  0.00    +0.170 HD
ENDROOT
BRANCH   7  15
ATOM     15  C   UNL     1      21.335  11.350  25.161  0.00  0.00    -0.007 A 
ATOM     16  C   UNL     1      20.902  11.193  26.519  0.00  0.00    +0.008 A 
ATOM     17  C   UNL     1      19.543  10.952  26.839  0.00  0.00    +0.010 A 
ATOM     18  C   UNL     1      19.144  10.809  28.169  0.00  0.00    +0.001 A 
ATOM     19  C   UNL     1      20.081  10.908  29.193  0.00  0.00    +0.002 A 
ATOM     20  C   UNL     1      21.411  11.148  28.878  0.00  0.00    +0.028 A 
ATOM     21  C   UNL     1      21.815  11.293  27.523  0.00  0.00    +0.072 A 
ATOM     22  N   UNL     1      23.153  11.522  27.245  0.00  0.00    -0.255 NA
ATOM     23  C   UNL     1      23.589  11.667  25.980  0.00  0.00    +0.112 A 
ATOM     24  C   UNL     1      22.678  11.588  24.919  0.00  0.00    +0.029 A 
ENDBRANCH   7  15
TORSDOF 1
ENDMDL
MODEL 7
REMARK VINA RESULT:      -4.4      1.703      2.537
REMARK  Name = 6GIP_EUN.pdb
REMARK  3 active torsions:
REMARK  status: ('A' for Active; 'I' for Inactive)
REMARK    1  A    between atoms: _1  and  _2
REMARK    2  A    between atoms: _9  and  _10
REMARK    3  A    between atoms: _20  and  _21
REMARK                            x       y       z     vdW  Elec       q    Type
REMARK                         _______ _______ _______ _____ _____    ______ ____
ROOT
ATOM      1  C   UNL     1      27.718  15.011  24.645  0.00  0.00    +0.086 C 
ATOM      2  C   UNL     1      27.542  15.995  23.521  0.00  0.00    +0.107 A 
ATOM      3  N   UNL     1      27.751  15.537  22.192  0.00  0.00    -0.234 NA
ATOM      4  C   UNL     1      27.588  16.458  21.080  0.00  0.00    +0.078 A 
ATOM      5  C   UNL     1      27.804  15.938  19.779  0.00  0.00    +0.029 A 
ATOM      6  C   UNL     1      27.658  16.730  18.663  0.00  0.00    +0.011 A 
ATOM      7  C   UNL     1      27.320  18.061  18.807  0.00  0.00    -0.013 A 
ATOM      8  C   UNL     1      27.100  18.595  20.097  0.00  0.00    -0.028 A 
ATOM      9  C   UNL     1      26.708  20.048  20.251  0.00  0.00    +0.045 C 
ATOM     10  C   UNL     1      27.240  17.762  21.260  0.00  0.00    +0.068 A 
ATOM     11  C   UNL     1      27.021  18.253  22.679  0.00  0.00    +0.259 A 
ATOM     12  O   UNL     1      26.716  19.411  22.903  0.00  0.00    -0.267 OA
ATOM     13  N   UNL     1      27.177  17.355  23.755  0.00  0.00    -0.311 N 
ATOM     14  H   UNL     1      27.043  17.646  24.610  0.00  0.00    +0.170 HD
ENDROOT
BRANCH   7  15
ATOM     15  C   UNL     1      27.174  18.829  17.652  0.00  0.00    -0.007 A 
ATOM     16  C   UNL     1      25.924  19.020  16.977  0.00  0.00    +0.008 A 
ATOM     17  C   UNL     1      24.724  18.442  17.463  0.00  0.00    +0.010 A 
ATOM     18  C   UNL     1      23.520  18.636  16.785  0.00  0.00    +0.001 A 
ATOM     19  C   UNL     1      23.490  19.395  15.619  0.00  0.00    +0.002 A 
ATOM     20  C   UNL     1      24.666  19.957  15.142  0.00  0.00    +0.028 A 
ATOM     21  C   UNL     1      25.891  19.759  15.835  0.00  0.00    +0.072 A 
ATOM     22  N   UNL     1      27.044  20.342  15.334  0.00  0.00    -0.255 NA
ATOM     23  C   UNL     1      28.231  20.187  15.950  0.00  0.00    +0.112 A 
ATOM     24  C   UNL     1      28.309  19.418  17.119  0.00  0.00    +0.029 A 
ENDBRANCH   7  15
TORSDOF 1
ENDMDL
MODEL 8
REMARK VINA RESULT:      -4.4     10.695     16.231
REMARK  Name = 6GIP_EUN.pdb
REMARK  3 active torsions:
REMARK  status: ('A' for Active; 'I' for Inactive)
REMARK    1  A    between atoms: _1  and  _2
REMARK    2  A    between atoms: _9  and  _10
REMARK    3  A    between atoms: _20  and  _21
REMARK                            x       y       z     vdW  Elec       q    Type
REMARK                         _______ _______ _______ _____ _____    ______ ____
ROOT
ATOM      1  C   UNL     1      28.313  18.198  29.342  0.00  0.00    +0.086 C 
ATOM      2  C   UNL     1      28.602  18.880  30.652  0.00  0.00    +0.107 A 
ATOM      3  N   UNL     1      29.642  19.847  30.688  0.00  0.00    -0.234 NA
ATOM      4  C   UNL     1      29.947  20.527  31.935  0.00  0.00    +0.078 A 
ATOM      5  C   UNL     1      30.991  21.486  31.904  0.00  0.00    +0.029 A 
ATOM      6  C   UNL     1      31.343  22.193  33.031  0.00  0.00    +0.011 A 
ATOM      7  C   UNL     1      30.688  21.950  34.223  0.00  0.00    -0.013 A 
ATOM      8  C   UNL     1      29.644  21.000  34.271  0.00  0.00    -0.028 A 
ATOM      9  C   UNL     1      28.914  20.752  35.572  0.00  0.00    +0.045 C 
ATOM     10  C   UNL     1      29.271  20.272  33.089  0.00  0.00    +0.068 A 
ATOM     11  C   UNL     1      28.163  19.236  33.052  0.00  0.00    +0.259 A 
ATOM     12  O   UNL     1      27.528  18.959  34.054  0.00  0.00    -0.267 OA
ATOM     13  N   UNL     1      27.867  18.581  31.839  0.00  0.00    -0.311 N 
ATOM     14  H   UNL     1      27.199  17.959  31.812  0.00  0.00    +0.170 HD
ENDROOT
BRANCH   7  15
ATOM     15  C   UNL     1      31.067  22.692  35.341  0.00  0.00    -0.007 A 
ATOM     16  C   UNL     1      30.631  24.035  35.590  0.00  0.00    +0.008 A 
ATOM     17  C   UNL     1      29.750  24.703  34.704  0.00  0.00    +0.010 A 
ATOM     18  C   UNL     1      29.344  26.013  34.964  0.00  0.00    +0.001 A 
ATOM     19  C   UNL     1      29.808  26.677  36.095  0.00  0.00    +0.002 A 
ATOM     20  C   UNL     1      30.675  26.023  36.960  0.00  0.00    +0.028 A 
ATOM     21  C   UNL     1      31.086  24.688  36.694  0.00  0.00    +0.072 A 
ATOM     22  N   UNL     1      31.944  24.063  37.584  0.00  0.00    -0.255 NA
ATOM     23  C   UNL     1      32.366  22.801  37.380  0.00  0.00    +0.112 A 
ATOM     24  C   UNL     1      31.933  22.101  36.246  0.00  0.00    +0.029 A 
ENDBRANCH   7  15
TORSDOF 1
ENDMDL
MODEL 9
REMARK VINA RESULT:      -4.3      3.791      6.048
REMARK  Name = 6GIP_EUN.pdb
REMARK  3 active torsions:
REMARK  status: ('A' for Active; 'I' for Inactive)
REMARK    1  A    between atoms: _1  and  _2
REMARK    2  A    between atoms: _9  and  _10
REMARK    3  A    between atoms: _20  and  _21
REMARK                            x       y       z     vdW  Elec       q    Type
REMARK                         _______ _______ _______ _____ _____    ______ ____
ROOT
ATOM      1  C   UNL     1      26.448  15.278  30.459  0.00  0.00    +0.086 C 
ATOM      2  C   UNL     1      27.044  16.027  29.299  0.00  0.00    +0.107 A 
ATOM      3  N   UNL     1      27.082  15.382  28.033  0.00  0.00    -0.234 NA
ATOM      4  C   UNL     1      27.649  16.075  26.890  0.00  0.00    +0.078 A 
ATOM      5  C   UNL     1      27.650  15.381  25.654  0.00  0.00    +0.029 A 
ATOM      6  C   UNL     1      28.152  15.961  24.511  0.00  0.00    +0.011 A 
ATOM      7  C   UNL     1      28.687  17.233  24.568  0.00  0.00    -0.013 A 
ATOM      8  C   UNL     1      28.692  17.940  25.791  0.00  0.00    -0.028 A 
ATOM      9  C   UNL     1      29.259  19.341  25.846  0.00  0.00    +0.045 C 
ATOM     10  C   UNL     1      28.156  17.336  26.980  0.00  0.00    +0.068 A 
ATOM     11  C   UNL     1      28.120  18.024  28.332  0.00  0.00    +0.259 A 
ATOM     12  O   UNL     1      28.566  19.149  28.476  0.00  0.00    -0.267 OA
ATOM     13  N   UNL     1      27.566  17.349  29.439  0.00  0.00    -0.311 N 
ATOM     14  H   UNL     1      27.540  17.761  30.253  0.00  0.00    +0.170 HD
ENDROOT
BRANCH   7  15
ATOM     15  C   UNL     1      29.179  17.790  23.387  0.00  0.00    -0.007 A 
ATOM     16  C   UNL     1      28.396  18.610  22.509  0.00  0.00    +0.008 A 
ATOM     17  C   UNL     1      27.047  18.930  22.802  0.00  0.00    +0.010 A 
ATOM     18  C   UNL     1      26.302  19.724  21.928  0.00  0.00    +0.001 A 
ATOM     19  C   UNL     1      26.880  20.203  20.757  0.00  0.00    +0.002 A 
ATOM     20  C   UNL     1      28.200  19.886  20.469  0.00  0.00    +0.028 A 
ATOM     21  C   UNL     1      28.957  19.077  21.361  0.00  0.00    +0.072 A 
ATOM     22  N   UNL     1      30.275  18.789  21.046  0.00  0.00    -0.255 NA
ATOM     23  C   UNL     1      31.036  18.028  21.855  0.00  0.00    +0.112 A 
ATOM     24  C   UNL     1      30.490  17.513  23.038  0.00  0.00    +0.029 A 
ENDBRANCH   7  15
TORSDOF 1
ENDMDL
