MODEL 1
REMARK VINA RESULT:      -6.6      0.000      0.000
REMARK  Name = 5OY6_B4E.pdb
REMARK  0 active torsions:
REMARK  status: ('A' for Active; 'I' for Inactive)
REMARK                            x       y       z     vdW  Elec       q    Type
REMARK                         _______ _______ _______ _____ _____    ______ ____
ROOT
ATOM      1 CL   UNL     1       7.445  12.421  29.224  0.00  0.00    -0.082 Cl
ATOM      2  C   UNL     1       8.404  13.201  27.985  0.00  0.00    +0.061 A 
ATOM      3  C   UNL     1       9.538  13.893  28.378  0.00  0.00    +0.012 A 
ATOM      4  C   UNL     1      10.329  14.536  27.435  0.00  0.00    +0.008 A 
ATOM      5  C   UNL     1      11.469  15.224  27.856  0.00  0.00    +0.057 A 
ATOM      6  C   UNL     1      12.041  16.374  27.252  0.00  0.00    +0.167 A 
ATOM      7  N   UNL     1      11.642  17.090  26.142  0.00  0.00    -0.210 NA
ATOM      8  C   UNL     1      12.359  18.162  25.762  0.00  0.00    +0.151 A 
ATOM      9  N   UNL     1      11.954  18.910  24.618  0.00  0.00    -0.218 NA
ATOM     10  C   UNL     1      10.648  18.720  24.076  0.00  0.00    +0.146 C 
ATOM     11  C   UNL     1      10.654  17.452  23.257  0.00  0.00    +0.166 C 
ATOM     12  O   UNL     1       9.412  16.800  23.516  0.00  0.00    -0.348 OA
ATOM     13  C   UNL     1       9.284  15.507  22.924  0.00  0.00    +0.189 C 
ATOM     14  C   UNL     1       8.112  14.884  23.637  0.00  0.00    +0.237 C 
ATOM     15  O   UNL     1       8.522  13.700  24.294  0.00  0.00    -0.473 OA
ATOM     16  C   UNL     1       8.848  13.784  25.677  0.00  0.00    +0.140 A 
ATOM     17  C   UNL     1      13.498  18.543  26.490  0.00  0.00    +0.057 A 
ATOM     18  C   UNL     1      13.878  17.800  27.601  0.00  0.00    +0.105 A 
ATOM     19  N   UNL     1      13.111  16.720  27.953  0.00  0.00    -0.211 N 
ATOM     20  N   UNL     1      13.292  15.826  28.992  0.00  0.00    -0.162 NA
ATOM     21  C   UNL     1      12.295  14.915  28.936  0.00  0.00    +0.124 A 
ATOM     22  C   UNL     1       9.984  14.476  26.078  0.00  0.00    +0.037 A 
ATOM     23  C   UNL     1       8.057  13.142  26.635  0.00  0.00    +0.048 A 
ENDROOT
TORSDOF 0
ENDMDL
MODEL 2
REMARK VINA RESULT:      -6.4      2.922      5.102
REMARK  Name = 5OY6_B4E.pdb
REMARK  0 active torsions:
REMARK  status: ('A' for Active; 'I' for Inactive)
REMARK                            x       y       z     vdW  Elec       q    Type
REMARK                         _______ _______ _______ _____ _____    ______ ____
ROOT
ATOM      1 CL   UNL     1      15.045  15.014  30.941  0.00  0.00    -0.082 Cl
ATOM      2  C   UNL     1      13.902  15.602  29.753  0.00  0.00    +0.061 A 
ATOM      3  C   UNL     1      12.825  14.793  29.430  0.00  0.00    +0.012 A 
ATOM      4  C   UNL     1      11.894  15.209  28.487  0.00  0.00    +0.008 A 
ATOM      5  C   UNL     1      10.814  14.377  28.180  0.00  0.00    +0.057 A 
ATOM      6  C   UNL     1      10.140  14.281  26.935  0.00  0.00    +0.167 A 
ATOM      7  N   UNL     1      10.361  14.949  25.749  0.00  0.00    -0.210 NA
ATOM      8  C   UNL     1       9.576  14.679  24.690  0.00  0.00    +0.151 A 
ATOM      9  N   UNL     1       9.798  15.361  23.458  0.00  0.00    -0.218 NA
ATOM     10  C   UNL     1      11.014  16.079  23.257  0.00  0.00    +0.146 C 
ATOM     11  C   UNL     1      10.912  17.399  23.981  0.00  0.00    +0.166 C 
ATOM     12  O   UNL     1      12.190  17.635  24.569  0.00  0.00    -0.348 OA
ATOM     13  C   UNL     1      12.254  18.786  25.411  0.00  0.00    +0.189 C 
ATOM     14  C   UNL     1      13.529  18.605  26.195  0.00  0.00    +0.237 C 
ATOM     15  O   UNL     1      13.240  18.554  27.579  0.00  0.00    -0.473 OA
ATOM     16  C   UNL     1      13.117  17.274  28.187  0.00  0.00    +0.140 A 
ATOM     17  C   UNL     1       8.549  13.728  24.798  0.00  0.00    +0.057 A 
ATOM     18  C   UNL     1       8.348  13.074  26.008  0.00  0.00    +0.105 A 
ATOM     19  N   UNL     1       9.178  13.379  27.056  0.00  0.00    -0.211 N 
ATOM     20  N   UNL     1       9.166  12.884  28.346  0.00  0.00    -0.162 NA
ATOM     21  C   UNL     1      10.161  13.489  29.033  0.00  0.00    +0.124 A 
ATOM     22  C   UNL     1      12.039  16.457  27.868  0.00  0.00    +0.037 A 
ATOM     23  C   UNL     1      14.050  16.844  29.136  0.00  0.00    +0.048 A 
ENDROOT
TORSDOF 0
ENDMDL
MODEL 3
REMARK VINA RESULT:      -6.4      3.096      5.138
REMARK  Name = 5OY6_B4E.pdb
REMARK  0 active torsions:
REMARK  status: ('A' for Active; 'I' for Inactive)
REMARK                            x       y       z     vdW  Elec       q    Type
REMARK                         _______ _______ _______ _____ _____    ______ ____
ROOT
ATOM      1 CL   UNL     1       4.230  14.555  20.822  0.00  0.00    -0.082 Cl
ATOM      2  C   UNL     1       5.835  15.087  21.277  0.00  0.00    +0.061 A 
ATOM      3  C   UNL     1       6.458  14.447  22.335  0.00  0.00    +0.012 A 
ATOM      4  C   UNL     1       7.729  14.837  22.740  0.00  0.00    +0.008 A 
ATOM      5  C   UNL     1       8.338  14.173  23.807  0.00  0.00    +0.057 A 
ATOM      6  C   UNL     1       9.260  14.721  24.736  0.00  0.00    +0.167 A 
ATOM      7  N   UNL     1       9.776  15.997  24.832  0.00  0.00    -0.210 NA
ATOM      8  C   UNL     1      10.648  16.279  25.817  0.00  0.00    +0.151 A 
ATOM      9  N   UNL     1      11.185  17.595  25.927  0.00  0.00    -0.218 NA
ATOM     10  C   UNL     1      10.577  18.668  25.209  0.00  0.00    +0.146 C 
ATOM     11  C   UNL     1      11.029  18.593  23.771  0.00  0.00    +0.166 C 
ATOM     12  O   UNL     1       9.889  18.911  22.975  0.00  0.00    -0.348 OA
ATOM     13  C   UNL     1      10.086  18.768  21.568  0.00  0.00    +0.189 C 
ATOM     14  C   UNL     1       8.693  18.771  20.992  0.00  0.00    +0.237 C 
ATOM     15  O   UNL     1       8.453  17.556  20.309  0.00  0.00    -0.473 OA
ATOM     16  C   UNL     1       7.766  16.523  21.007  0.00  0.00    +0.140 A 
ATOM     17  C   UNL     1      11.023  15.282  26.732  0.00  0.00    +0.057 A 
ATOM     18  C   UNL     1      10.491  14.005  26.607  0.00  0.00    +0.105 A 
ATOM     19  N   UNL     1       9.601  13.769  25.591  0.00  0.00    -0.211 N 
ATOM     20  N   UNL     1       8.958  12.593  25.254  0.00  0.00    -0.162 NA
ATOM     21  C   UNL     1       8.189  12.835  24.168  0.00  0.00    +0.124 A 
ATOM     22  C   UNL     1       8.386  15.876  22.069  0.00  0.00    +0.037 A 
ATOM     23  C   UNL     1       6.486  16.124  20.609  0.00  0.00    +0.048 A 
ENDROOT
TORSDOF 0
ENDMDL
MODEL 4
REMARK VINA RESULT:      -6.2      2.977      5.067
REMARK  Name = 5OY6_B4E.pdb
REMARK  0 active torsions:
REMARK  status: ('A' for Active; 'I' for Inactive)
REMARK                            x       y       z     vdW  Elec       q    Type
REMARK                         _______ _______ _______ _____ _____    ______ ____
ROOT
ATOM      1 CL   UNL     1      14.211  16.867  29.763  0.00  0.00    -0.082 Cl
ATOM      2  C   UNL     1      12.816  16.806  28.706  0.00  0.00    +0.061 A 
ATOM      3  C   UNL     1      12.077  15.635  28.672  0.00  0.00    +0.012 A 
ATOM      4  C   UNL     1      10.966  15.533  27.844  0.00  0.00    +0.008 A 
ATOM      5  C   UNL     1      10.233  14.343  27.829  0.00  0.00    +0.057 A 
ATOM      6  C   UNL     1       9.515  13.799  26.734  0.00  0.00    +0.167 A 
ATOM      7  N   UNL     1       9.355  14.275  25.448  0.00  0.00    -0.210 NA
ATOM      8  C   UNL     1       8.616  13.567  24.575  0.00  0.00    +0.151 A 
ATOM      9  N   UNL     1       8.448  14.048  23.244  0.00  0.00    -0.218 NA
ATOM     10  C   UNL     1       9.296  15.086  22.755  0.00  0.00    +0.146 C 
ATOM     11  C   UNL     1       8.800  16.401  23.303  0.00  0.00    +0.166 C 
ATOM     12  O   UNL     1       9.960  17.159  23.641  0.00  0.00    -0.348 OA
ATOM     13  C   UNL     1       9.692  18.397  24.301  0.00  0.00    +0.189 C 
ATOM     14  C   UNL     1      11.019  18.805  24.886  0.00  0.00    +0.237 C 
ATOM     15  O   UNL     1      10.913  18.912  26.292  0.00  0.00    -0.473 OA
ATOM     16  C   UNL     1      11.324  17.799  27.078  0.00  0.00    +0.140 A 
ATOM     17  C   UNL     1       8.018  12.361  24.973  0.00  0.00    +0.057 A 
ATOM     18  C   UNL     1       8.193  11.910  26.276  0.00  0.00    +0.105 A 
ATOM     19  N   UNL     1       8.960  12.663  27.127  0.00  0.00    -0.211 N 
ATOM     20  N   UNL     1       9.262  12.436  28.457  0.00  0.00    -0.162 NA
ATOM     21  C   UNL     1      10.036  13.457  28.888  0.00  0.00    +0.124 A 
ATOM     22  C   UNL     1      10.586  16.621  27.049  0.00  0.00    +0.037 A 
ATOM     23  C   UNL     1      12.442  17.891  27.913  0.00  0.00    +0.048 A 
ENDROOT
TORSDOF 0
ENDMDL
MODEL 5
REMARK VINA RESULT:      -6.0      3.678      6.041
REMARK  Name = 5OY6_B4E.pdb
REMARK  0 active torsions:
REMARK  status: ('A' for Active; 'I' for Inactive)
REMARK                            x       y       z     vdW  Elec       q    Type
REMARK                         _______ _______ _______ _____ _____    ______ ____
ROOT
ATOM      1 CL   UNL     1       9.534  10.731  25.311  0.00  0.00    -0.082 Cl
ATOM      2  C   UNL     1       9.191  12.414  24.971  0.00  0.00    +0.061 A 
ATOM      3  C   UNL     1       8.520  12.716  23.798  0.00  0.00    +0.012 A 
ATOM      4  C   UNL     1       8.230  14.037  23.478  0.00  0.00    +0.008 A 
ATOM      5  C   UNL     1       7.548  14.318  22.291  0.00  0.00    +0.057 A 
ATOM      6  C   UNL     1       7.671  15.485  21.494  0.00  0.00    +0.167 A 
ATOM      7  N   UNL     1       8.462  16.602  21.666  0.00  0.00    -0.210 NA
ATOM      8  C   UNL     1       8.402  17.593  20.758  0.00  0.00    +0.151 A 
ATOM      9  N   UNL     1       9.217  18.750  20.925  0.00  0.00    -0.218 NA
ATOM     10  C   UNL     1      10.298  18.725  21.855  0.00  0.00    +0.146 C 
ATOM     11  C   UNL     1       9.734  18.910  23.243  0.00  0.00    +0.166 C 
ATOM     12  O   UNL     1      10.465  18.030  24.095  0.00  0.00    -0.348 OA
ATOM     13  C   UNL     1       9.987  17.968  25.439  0.00  0.00    +0.189 C 
ATOM     14  C   UNL     1      10.635  16.733  26.010  0.00  0.00    +0.237 C 
ATOM     15  O   UNL     1       9.641  15.815  26.423  0.00  0.00    -0.473 OA
ATOM     16  C   UNL     1       9.286  14.768  25.527  0.00  0.00    +0.140 A 
ATOM     17  C   UNL     1       7.545  17.484  19.652  0.00  0.00    +0.057 A 
ATOM     18  C   UNL     1       6.757  16.348  19.507  0.00  0.00    +0.105 A 
ATOM     19  N   UNL     1       6.858  15.363  20.456  0.00  0.00    -0.211 N 
ATOM     20  N   UNL     1       6.175  14.164  20.541  0.00  0.00    -0.162 NA
ATOM     21  C   UNL     1       6.592  13.526  21.657  0.00  0.00    +0.124 A 
ATOM     22  C   UNL     1       8.611  15.065  24.349  0.00  0.00    +0.037 A 
ATOM     23  C   UNL     1       9.574  13.436  25.839  0.00  0.00    +0.048 A 
ENDROOT
TORSDOF 0
ENDMDL
MODEL 6
REMARK VINA RESULT:      -5.9      2.876      5.252
REMARK  Name = 5OY6_B4E.pdb
REMARK  0 active torsions:
REMARK  status: ('A' for Active; 'I' for Inactive)
REMARK                            x       y       z     vdW  Elec       q    Type
REMARK                         _______ _______ _______ _____ _____    ______ ____
ROOT
ATOM      1 CL   UNL     1       8.361  10.217  24.570  0.00  0.00    -0.082 Cl
ATOM      2  C   UNL     1       8.477  11.951  24.786  0.00  0.00    +0.061 A 
ATOM      3  C   UNL     1       8.233  12.761  23.690  0.00  0.00    +0.012 A 
ATOM      4  C   UNL     1       8.320  14.143  23.808  0.00  0.00    +0.008 A 
ATOM      5  C   UNL     1       8.065  14.940  22.689  0.00  0.00    +0.057 A 
ATOM      6  C   UNL     1       8.640  16.204  22.395  0.00  0.00    +0.167 A 
ATOM      7  N   UNL     1       9.562  16.948  23.100  0.00  0.00    -0.210 NA
ATOM      8  C   UNL     1       9.960  18.135  22.608  0.00  0.00    +0.151 A 
ATOM      9  N   UNL     1      10.916  18.911  23.327  0.00  0.00    -0.218 NA
ATOM     10  C   UNL     1      11.668  18.309  24.378  0.00  0.00    +0.146 C 
ATOM     11  C   UNL     1      10.792  18.233  25.605  0.00  0.00    +0.166 C 
ATOM     12  O   UNL     1      11.063  16.972  26.215  0.00  0.00    -0.348 OA
ATOM     13  C   UNL     1      10.229  16.658  27.331  0.00  0.00    +0.189 C 
ATOM     14  C   UNL     1      10.427  15.179  27.542  0.00  0.00    +0.237 C 
ATOM     15  O   UNL     1       9.192  14.504  27.404  0.00  0.00    -0.473 OA
ATOM     16  C   UNL     1       8.893  13.911  26.146  0.00  0.00    +0.140 A 
ATOM     17  C   UNL     1       9.440  18.603  21.391  0.00  0.00    +0.057 A 
ATOM     18  C   UNL     1       8.508  17.833  20.705  0.00  0.00    +0.105 A 
ATOM     19  N   UNL     1       8.139  16.628  21.245  0.00  0.00    -0.211 N 
ATOM     20  N   UNL     1       7.229  15.703  20.767  0.00  0.00    -0.162 NA
ATOM     21  C   UNL     1       7.181  14.675  21.644  0.00  0.00    +0.124 A 
ATOM     22  C   UNL     1       8.646  14.719  25.042  0.00  0.00    +0.037 A 
ATOM     23  C   UNL     1       8.805  12.521  26.016  0.00  0.00    +0.048 A 
ENDROOT
TORSDOF 0
ENDMDL
MODEL 7
REMARK VINA RESULT:      -5.9      3.877      6.314
REMARK  Name = 5OY6_B4E.pdb
REMARK  0 active torsions:
REMARK  status: ('A' for Active; 'I' for Inactive)
REMARK                            x       y       z     vdW  Elec       q    Type
REMARK                         _______ _______ _______ _____ _____    ______ ____
ROOT
ATOM      1 CL   UNL     1      10.739  17.817  27.710  0.00  0.00    -0.082 Cl
ATOM      2  C   UNL     1      10.255  16.831  26.347  0.00  0.00    +0.061 A 
ATOM      3  C   UNL     1       9.990  17.466  25.145  0.00  0.00    +0.012 A 
ATOM      4  C   UNL     1       9.595  16.729  24.035  0.00  0.00    +0.008 A 
ATOM      5  C   UNL     1       9.337  17.392  22.833  0.00  0.00    +0.057 A 
ATOM      6  C   UNL     1       8.408  17.008  21.831  0.00  0.00    +0.167 A 
ATOM      7  N   UNL     1       7.549  15.930  21.779  0.00  0.00    -0.210 NA
ATOM      8  C   UNL     1       6.751  15.779  20.706  0.00  0.00    +0.151 A 
ATOM      9  N   UNL     1       5.858  14.671  20.644  0.00  0.00    -0.218 NA
ATOM     10  C   UNL     1       5.586  13.915  21.822  0.00  0.00    +0.146 C 
ATOM     11  C   UNL     1       6.745  12.979  22.064  0.00  0.00    +0.166 C 
ATOM     12  O   UNL     1       6.969  12.973  23.473  0.00  0.00    -0.348 OA
ATOM     13  C   UNL     1       8.120  12.236  23.890  0.00  0.00    +0.189 C 
ATOM     14  C   UNL     1       8.361  12.690  25.307  0.00  0.00    +0.237 C 
ATOM     15  O   UNL     1       9.644  13.276  25.413  0.00  0.00    -0.473 OA
ATOM     16  C   UNL     1       9.737  14.693  25.333  0.00  0.00    +0.140 A 
ATOM     17  C   UNL     1       6.798  16.712  19.657  0.00  0.00    +0.057 A 
ATOM     18  C   UNL     1       7.677  17.785  19.736  0.00  0.00    +0.105 A 
ATOM     19  N   UNL     1       8.464  17.899  20.853  0.00  0.00    -0.211 N 
ATOM     20  N   UNL     1       9.417  18.855  21.151  0.00  0.00    -0.162 NA
ATOM     21  C   UNL     1       9.950  18.549  22.355  0.00  0.00    +0.124 A 
ATOM     22  C   UNL     1       9.474  15.337  24.130  0.00  0.00    +0.037 A 
ATOM     23  C   UNL     1      10.132  15.445  26.444  0.00  0.00    +0.048 A 
ENDROOT
TORSDOF 0
ENDMDL
MODEL 8
REMARK VINA RESULT:      -5.9      4.821      7.531
REMARK  Name = 5OY6_B4E.pdb
REMARK  0 active torsions:
REMARK  status: ('A' for Active; 'I' for Inactive)
REMARK                            x       y       z     vdW  Elec       q    Type
REMARK                         _______ _______ _______ _____ _____    ______ ____
ROOT
ATOM      1 CL   UNL     1       5.051  14.181  16.383  0.00  0.00    -0.082 Cl
ATOM      2  C   UNL     1       5.448  14.223  18.088  0.00  0.00    +0.061 A 
ATOM      3  C   UNL     1       6.302  15.219  18.532  0.00  0.00    +0.012 A 
ATOM      4  C   UNL     1       6.655  15.292  19.874  0.00  0.00    +0.008 A 
ATOM      5  C   UNL     1       7.514  16.307  20.300  0.00  0.00    +0.057 A 
ATOM      6  C   UNL     1       8.442  16.244  21.372  0.00  0.00    +0.167 A 
ATOM      7  N   UNL     1       8.732  15.212  22.240  0.00  0.00    -0.210 NA
ATOM      8  C   UNL     1       9.668  15.397  23.188  0.00  0.00    +0.151 A 
ATOM      9  N   UNL     1       9.978  14.335  24.088  0.00  0.00    -0.218 NA
ATOM     10  C   UNL     1       9.538  13.010  23.795  0.00  0.00    +0.146 C 
ATOM     11  C   UNL     1       8.077  12.904  24.157  0.00  0.00    +0.166 C 
ATOM     12  O   UNL     1       7.466  12.121  23.133  0.00  0.00    -0.348 OA
ATOM     13  C   UNL     1       6.045  12.015  23.233  0.00  0.00    +0.189 C 
ATOM     14  C   UNL     1       5.612  11.505  21.883  0.00  0.00    +0.237 C 
ATOM     15  O   UNL     1       4.733  12.433  21.276  0.00  0.00    -0.473 OA
ATOM     16  C   UNL     1       5.281  13.357  20.343  0.00  0.00    +0.140 A 
ATOM     17  C   UNL     1      10.336  16.627  23.288  0.00  0.00    +0.057 A 
ATOM     18  C   UNL     1      10.019  17.651  22.403  0.00  0.00    +0.105 A 
ATOM     19  N   UNL     1       9.063  17.411  21.449  0.00  0.00    -0.211 N 
ATOM     20  N   UNL     1       8.568  18.265  20.481  0.00  0.00    -0.162 NA
ATOM     21  C   UNL     1       7.625  17.596  19.780  0.00  0.00    +0.124 A 
ATOM     22  C   UNL     1       6.137  14.359  20.783  0.00  0.00    +0.037 A 
ATOM     23  C   UNL     1       4.934  13.292  18.989  0.00  0.00    +0.048 A 
ENDROOT
TORSDOF 0
ENDMDL
MODEL 9
REMARK VINA RESULT:      -5.5      3.767      6.228
REMARK  Name = 5OY6_B4E.pdb
REMARK  0 active torsions:
REMARK  status: ('A' for Active; 'I' for Inactive)
REMARK                            x       y       z     vdW  Elec       q    Type
REMARK                         _______ _______ _______ _____ _____    ______ ____
ROOT
ATOM      1 CL   UNL     1       6.735  15.823  17.610  0.00  0.00    -0.082 Cl
ATOM      2  C   UNL     1       6.882  15.445  19.313  0.00  0.00    +0.061 A 
ATOM      3  C   UNL     1       7.559  16.342  20.123  0.00  0.00    +0.012 A 
ATOM      4  C   UNL     1       7.710  16.085  21.480  0.00  0.00    +0.008 A 
ATOM      5  C   UNL     1       8.393  17.007  22.277  0.00  0.00    +0.057 A 
ATOM      6  C   UNL     1       9.161  16.725  23.436  0.00  0.00    +0.167 A 
ATOM      7  N   UNL     1       9.430  15.523  24.056  0.00  0.00    -0.210 NA
ATOM      8  C   UNL     1      10.199  15.513  25.160  0.00  0.00    +0.151 A 
ATOM      9  N   UNL     1      10.485  14.276  25.807  0.00  0.00    -0.218 NA
ATOM     10  C   UNL     1      10.229  13.048  25.129  0.00  0.00    +0.146 C 
ATOM     11  C   UNL     1       8.750  12.760  25.211  0.00  0.00    +0.166 C 
ATOM     12  O   UNL     1       8.371  12.234  23.940  0.00  0.00    -0.348 OA
ATOM     13  C   UNL     1       6.969  12.017  23.779  0.00  0.00    +0.189 C 
ATOM     14  C   UNL     1       6.785  11.849  22.293  0.00  0.00    +0.237 C 
ATOM     15  O   UNL     1       5.911  12.847  21.800  0.00  0.00    -0.473 OA
ATOM     16  C   UNL     1       6.488  14.014  21.226  0.00  0.00    +0.140 A 
ATOM     17  C   UNL     1      10.718  16.715  25.668  0.00  0.00    +0.057 A 
ATOM     18  C   UNL     1      10.426  17.911  25.024  0.00  0.00    +0.105 A 
ATOM     19  N   UNL     1       9.644  17.868  23.899  0.00  0.00    -0.211 N 
ATOM     20  N   UNL     1       9.206  18.912  23.105  0.00  0.00    -0.162 NA
ATOM     21  C   UNL     1       8.444  18.391  22.117  0.00  0.00    +0.124 A 
ATOM     22  C   UNL     1       7.167  14.918  22.033  0.00  0.00    +0.037 A 
ATOM     23  C   UNL     1       6.343  14.281  19.861  0.00  0.00    +0.048 A 
ENDROOT
TORSDOF 0
ENDMDL
