MODEL 1
REMARK VINA RESULT:     -10.5      0.000      0.000
REMARK  Name = 6GIN_IR2.pdb
REMARK  3 active torsions:
REMARK  status: ('A' for Active; 'I' for Inactive)
REMARK    1  A    between atoms: _6  and  _7
REMARK    2  A    between atoms: _10  and  _13
REMARK    3  A    between atoms: _19  and  _24
REMARK                            x       y       z     vdW  Elec       q    Type
REMARK                         _______ _______ _______ _____ _____    ______ ____
ROOT
ATOM      1  N   UNL     1       5.870  24.078  12.958  0.00  0.00    -0.257 N 
ATOM      2  C   UNL     1       6.205  24.421  14.259  0.00  0.00    +0.267 A 
ATOM      3  O   UNL     1       6.586  25.559  14.496  0.00  0.00    -0.267 OA
ATOM      4  C   UNL     1       6.077  23.349  15.309  0.00  0.00    +0.074 A 
ATOM      5  C   UNL     1       6.413  23.615  16.651  0.00  0.00    +0.006 A 
ATOM      6  C   UNL     1       6.310  22.618  17.631  0.00  0.00    +0.000 A 
ATOM      7  C   UNL     1       5.840  21.337  17.285  0.00  0.00    +0.002 A 
ATOM      8  C   UNL     1       5.500  21.051  15.972  0.00  0.00    +0.019 A 
ATOM      9  C   UNL     1       5.629  22.096  15.002  0.00  0.00    +0.088 A 
ATOM     10  N   UNL     1       5.284  21.771  13.666  0.00  0.00    -0.225 NA
ATOM     11  C   UNL     1       5.400  22.783  12.673  0.00  0.00    +0.185 A 
ENDROOT
BRANCH   6  12
ATOM     12  C   UNL     1       6.627  22.891  18.971  0.00  0.00    +0.003 A 
ATOM     13  C   UNL     1       6.042  24.009  19.702  0.00  0.00    +0.018 A 
ATOM     14  C   UNL     1       5.103  24.934  19.130  0.00  0.00    +0.001 A 
ATOM     15  C   UNL     1       4.557  26.030  19.827  0.00  0.00    +0.000 A 
ATOM     16  C   UNL     1       4.951  26.205  21.155  0.00  0.00    +0.002 A 
ATOM     17  C   UNL     1       5.834  25.296  21.745  0.00  0.00    +0.019 A 
ATOM     18  C   UNL     1       6.392  24.195  21.008  0.00  0.00    +0.081 A 
ATOM     19  N   UNL     1       7.285  23.313  21.617  0.00  0.00    -0.244 NA
ATOM     20  C   UNL     1       7.831  22.255  20.984  0.00  0.00    +0.099 A 
ATOM     21  C   UNL     1       7.491  22.034  19.633  0.00  0.00    +0.021 A 
ENDBRANCH   6  12
BRANCH   1  25
ATOM     22  C   UNL     1       5.698  26.568   9.590  0.00  0.00    +0.048 A 
ATOM     23  C   UNL     1       4.992  26.916  10.740  0.00  0.00    +0.016 A 
ATOM     24  C   UNL     1       5.057  26.099  11.862  0.00  0.00    +0.019 A 
ATOM     25  C   UNL     1       5.864  24.962  11.857  0.00  0.00    +0.068 A 
ATOM     26  C   UNL     1       6.527  24.588  10.699  0.00  0.00    +0.019 A 
ATOM     27  C   UNL     1       6.450  25.393   9.571  0.00  0.00    +0.016 A 
BRANCH  22  29
ATOM     28  C   UNL     1       5.745  28.773   8.551  0.00  0.00    +0.123 C 
ATOM     29  N   UNL     1       5.634  27.371   8.397  0.00  0.00    -0.303 N 
ATOM     30  C   UNL     1       4.759  26.923   7.384  0.00  0.00    +0.123 C 
ATOM     31  C   UNL     1       3.627  27.881   7.073  0.00  0.00    +0.164 C 
ATOM     32  O   UNL     1       3.342  28.808   8.114  0.00  0.00    -0.350 OA
ATOM     33  C   UNL     1       4.454  29.578   8.502  0.00  0.00    +0.164 C 
ENDBRANCH  22  29
ENDBRANCH   1  25
TORSDOF 3
ENDMDL
MODEL 2
REMARK VINA RESULT:     -10.2      4.538     11.988
REMARK  Name = 6GIN_IR2.pdb
REMARK  3 active torsions:
REMARK  status: ('A' for Active; 'I' for Inactive)
REMARK    1  A    between atoms: _6  and  _7
REMARK    2  A    between atoms: _10  and  _13
REMARK    3  A    between atoms: _19  and  _24
REMARK                            x       y       z     vdW  Elec       q    Type
REMARK                         _______ _______ _______ _____ _____    ______ ____
ROOT
ATOM      1  N   UNL     1       8.416  22.205  21.202  0.00  0.00    -0.257 N 
ATOM      2  C   UNL     1       8.337  22.388  19.830  0.00  0.00    +0.267 A 
ATOM      3  O   UNL     1       9.042  21.711  19.096  0.00  0.00    -0.267 OA
ATOM      4  C   UNL     1       7.371  23.429  19.328  0.00  0.00    +0.074 A 
ATOM      5  C   UNL     1       7.245  23.685  17.949  0.00  0.00    +0.006 A 
ATOM      6  C   UNL     1       6.358  24.664  17.475  0.00  0.00    +0.000 A 
ATOM      7  C   UNL     1       5.561  25.388  18.381  0.00  0.00    +0.002 A 
ATOM      8  C   UNL     1       5.664  25.153  19.743  0.00  0.00    +0.019 A 
ATOM      9  C   UNL     1       6.588  24.151  20.183  0.00  0.00    +0.088 A 
ATOM     10  N   UNL     1       6.681  23.941  21.582  0.00  0.00    -0.225 NA
ATOM     11  C   UNL     1       7.588  22.954  22.058  0.00  0.00    +0.185 A 
ENDROOT
BRANCH   6  12
ATOM     12  C   UNL     1       6.219  24.903  16.099  0.00  0.00    +0.003 A 
ATOM     13  C   UNL     1       6.303  26.240  15.523  0.00  0.00    +0.018 A 
ATOM     14  C   UNL     1       6.524  27.430  16.296  0.00  0.00    +0.001 A 
ATOM     15  C   UNL     1       6.579  28.726  15.745  0.00  0.00    +0.000 A 
ATOM     16  C   UNL     1       6.421  28.839  14.362  0.00  0.00    +0.002 A 
ATOM     17  C   UNL     1       6.243  27.692  13.584  0.00  0.00    +0.019 A 
ATOM     18  C   UNL     1       6.172  26.382  14.172  0.00  0.00    +0.081 A 
ATOM     19  N   UNL     1       5.976  25.255  13.373  0.00  0.00    -0.244 NA
ATOM     20  C   UNL     1       5.915  24.000  13.863  0.00  0.00    +0.099 A 
ATOM     21  C   UNL     1       6.046  23.817  15.255  0.00  0.00    +0.021 A 
ENDBRANCH   6  12
BRANCH   1  25
ATOM     22  C   UNL     1      10.711  19.415  23.327  0.00  0.00    +0.048 A 
ATOM     23  C   UNL     1       9.461  19.046  22.835  0.00  0.00    +0.016 A 
ATOM     24  C   UNL     1       8.703  19.964  22.120  0.00  0.00    +0.019 A 
ATOM     25  C   UNL     1       9.210  21.235  21.851  0.00  0.00    +0.068 A 
ATOM     26  C   UNL     1      10.432  21.620  22.380  0.00  0.00    +0.019 A 
ATOM     27  C   UNL     1      11.183  20.711  23.110  0.00  0.00    +0.016 A 
BRANCH  22  29
ATOM     28  C   UNL     1      10.972  17.226  24.369  0.00  0.00    +0.123 C 
ATOM     29  N   UNL     1      11.516  18.504  24.098  0.00  0.00    -0.303 N 
ATOM     30  C   UNL     1      12.307  19.073  25.120  0.00  0.00    +0.123 C 
ATOM     31  C   UNL     1      11.947  18.606  26.516  0.00  0.00    +0.164 C 
ATOM     32  O   UNL     1      10.634  18.074  26.635  0.00  0.00    -0.350 OA
ATOM     33  C   UNL     1      10.377  17.008  25.753  0.00  0.00    +0.164 C 
ENDBRANCH  22  29
ENDBRANCH   1  25
TORSDOF 3
ENDMDL
MODEL 3
REMARK VINA RESULT:     -10.1      3.479      5.166
REMARK  Name = 6GIN_IR2.pdb
REMARK  3 active torsions:
REMARK  status: ('A' for Active; 'I' for Inactive)
REMARK    1  A    between atoms: _6  and  _7
REMARK    2  A    between atoms: _10  and  _13
REMARK    3  A    between atoms: _19  and  _24
REMARK                            x       y       z     vdW  Elec       q    Type
REMARK                         _______ _______ _______ _____ _____    ______ ____
ROOT
ATOM      1  N   UNL     1       6.280  23.412  13.172  0.00  0.00    -0.257 N 
ATOM      2  C   UNL     1       5.996  23.234  14.517  0.00  0.00    +0.267 A 
ATOM      3  O   UNL     1       5.496  22.180  14.888  0.00  0.00    -0.267 OA
ATOM      4  C   UNL     1       6.328  24.370  15.448  0.00  0.00    +0.074 A 
ATOM      5  C   UNL     1       6.056  24.272  16.826  0.00  0.00    +0.006 A 
ATOM      6  C   UNL     1       6.348  25.333  17.696  0.00  0.00    +0.000 A 
ATOM      7  C   UNL     1       6.946  26.506  17.199  0.00  0.00    +0.002 A 
ATOM      8  C   UNL     1       7.226  26.626  15.847  0.00  0.00    +0.019 A 
ATOM      9  C   UNL     1       6.903  25.523  14.994  0.00  0.00    +0.088 A 
ATOM     10  N   UNL     1       7.191  25.679  13.614  0.00  0.00    -0.225 NA
ATOM     11  C   UNL     1       6.883  24.605  12.735  0.00  0.00    +0.185 A 
ENDROOT
BRANCH   6  12
ATOM     12  C   UNL     1       6.095  25.224  19.073  0.00  0.00    +0.003 A 
ATOM     13  C   UNL     1       6.714  24.199  19.906  0.00  0.00    +0.018 A 
ATOM     14  C   UNL     1       7.625  23.208  19.406  0.00  0.00    +0.001 A 
ATOM     15  C   UNL     1       8.204  22.201  20.204  0.00  0.00    +0.000 A 
ATOM     16  C   UNL     1       7.872  22.189  21.560  0.00  0.00    +0.002 A 
ATOM     17  C   UNL     1       7.018  23.167  22.077  0.00  0.00    +0.019 A 
ATOM     18  C   UNL     1       6.425  24.174  21.239  0.00  0.00    +0.081 A 
ATOM     19  N   UNL     1       5.561  25.128  21.778  0.00  0.00    -0.244 NA
ATOM     20  C   UNL     1       4.986  26.105  21.048  0.00  0.00    +0.099 A 
ATOM     21  C   UNL     1       5.262  26.160  19.666  0.00  0.00    +0.021 A 
ENDBRANCH   6  12
BRANCH   1  25
ATOM     22  C   UNL     1       5.708  20.370  10.345  0.00  0.00    +0.048 A 
ATOM     23  C   UNL     1       4.674  21.265  10.612  0.00  0.00    +0.016 A 
ATOM     24  C   UNL     1       4.864  22.281  11.539  0.00  0.00    +0.019 A 
ATOM     25  C   UNL     1       6.101  22.438  12.165  0.00  0.00    +0.068 A 
ATOM     26  C   UNL     1       7.114  21.522  11.936  0.00  0.00    +0.019 A 
ATOM     27  C   UNL     1       6.921  20.495  11.024  0.00  0.00    +0.016 A 
BRANCH  22  29
ATOM     28  C   UNL     1       5.932  19.515   8.072  0.00  0.00    +0.123 C 
ATOM     29  N   UNL     1       5.542  19.286   9.412  0.00  0.00    -0.303 N 
ATOM     30  C   UNL     1       4.410  18.464   9.600  0.00  0.00    +0.123 C 
ATOM     31  C   UNL     1       3.428  18.488   8.446  0.00  0.00    +0.164 C 
ATOM     32  O   UNL     1       3.536  19.632   7.609  0.00  0.00    -0.350 OA
ATOM     33  C   UNL     1       4.824  19.818   7.072  0.00  0.00    +0.164 C 
ENDBRANCH  22  29
ENDBRANCH   1  25
TORSDOF 3
ENDMDL
MODEL 4
REMARK VINA RESULT:     -10.0      6.162     10.943
REMARK  Name = 6GIN_IR2.pdb
REMARK  3 active torsions:
REMARK  status: ('A' for Active; 'I' for Inactive)
REMARK    1  A    between atoms: _6  and  _7
REMARK    2  A    between atoms: _10  and  _13
REMARK    3  A    between atoms: _19  and  _24
REMARK                            x       y       z     vdW  Elec       q    Type
REMARK                         _______ _______ _______ _____ _____    ______ ____
ROOT
ATOM      1  N   UNL     1      11.716  23.189  19.312  0.00  0.00    -0.257 N 
ATOM      2  C   UNL     1      11.070  23.651  18.175  0.00  0.00    +0.267 A 
ATOM      3  O   UNL     1      11.730  23.928  17.184  0.00  0.00    -0.267 OA
ATOM      4  C   UNL     1       9.571  23.784  18.241  0.00  0.00    +0.074 A 
ATOM      5  C   UNL     1       8.844  24.261  17.133  0.00  0.00    +0.006 A 
ATOM      6  C   UNL     1       7.450  24.402  17.192  0.00  0.00    +0.000 A 
ATOM      7  C   UNL     1       6.755  24.040  18.362  0.00  0.00    +0.002 A 
ATOM      8  C   UNL     1       7.447  23.566  19.465  0.00  0.00    +0.019 A 
ATOM      9  C   UNL     1       8.870  23.446  19.364  0.00  0.00    +0.088 A 
ATOM     10  N   UNL     1       9.553  22.969  20.511  0.00  0.00    -0.225 NA
ATOM     11  C   UNL     1      10.967  22.837  20.450  0.00  0.00    +0.185 A 
ENDROOT
BRANCH   6  12
ATOM     12  C   UNL     1       6.725  24.858  16.080  0.00  0.00    +0.003 A 
ATOM     13  C   UNL     1       6.618  26.273  15.741  0.00  0.00    +0.018 A 
ATOM     14  C   UNL     1       7.227  27.326  16.505  0.00  0.00    +0.001 A 
ATOM     15  C   UNL     1       7.102  28.694  16.194  0.00  0.00    +0.000 A 
ATOM     16  C   UNL     1       6.351  29.028  15.065  0.00  0.00    +0.002 A 
ATOM     17  C   UNL     1       5.781  28.019  14.284  0.00  0.00    +0.019 A 
ATOM     18  C   UNL     1       5.906  26.630  14.632  0.00  0.00    +0.081 A 
ATOM     19  N   UNL     1       5.312  25.644  13.844  0.00  0.00    -0.244 NA
ATOM     20  C   UNL     1       5.406  24.325  14.109  0.00  0.00    +0.099 A 
ATOM     21  C   UNL     1       6.133  23.921  15.248  0.00  0.00    +0.021 A 
ENDBRANCH   6  12
BRANCH   1  25
ATOM     22  C   UNL     1      15.829  22.385  19.406  0.00  0.00    +0.048 A 
ATOM     23  C   UNL     1      15.387  23.702  19.291  0.00  0.00    +0.016 A 
ATOM     24  C   UNL     1      14.025  23.972  19.271  0.00  0.00    +0.019 A 
ATOM     25  C   UNL     1      13.102  22.938  19.417  0.00  0.00    +0.068 A 
ATOM     26  C   UNL     1      13.537  21.624  19.483  0.00  0.00    +0.019 A 
ATOM     27  C   UNL     1      14.897  21.349  19.485  0.00  0.00    +0.016 A 
BRANCH  22  29
ATOM     28  C   UNL     1      17.821  21.706  20.636  0.00  0.00    +0.123 C 
ATOM     29  N   UNL     1      17.231  22.059  19.400  0.00  0.00    -0.303 N 
ATOM     30  C   UNL     1      18.044  22.794  18.510  0.00  0.00    +0.123 C 
ATOM     31  C   UNL     1      19.106  23.634  19.189  0.00  0.00    +0.164 C 
ATOM     32  O   UNL     1      18.838  23.926  20.555  0.00  0.00    -0.350 OA
ATOM     33  C   UNL     1      18.635  22.779  21.346  0.00  0.00    +0.164 C 
ENDBRANCH  22  29
ENDBRANCH   1  25
TORSDOF 3
ENDMDL
MODEL 5
REMARK VINA RESULT:     -10.0      4.287     11.992
REMARK  Name = 6GIN_IR2.pdb
REMARK  3 active torsions:
REMARK  status: ('A' for Active; 'I' for Inactive)
REMARK    1  A    between atoms: _6  and  _7
REMARK    2  A    between atoms: _10  and  _13
REMARK    3  A    between atoms: _19  and  _24
REMARK                            x       y       z     vdW  Elec       q    Type
REMARK                         _______ _______ _______ _____ _____    ______ ____
ROOT
ATOM      1  N   UNL     1       8.333  22.312  21.090  0.00  0.00    -0.257 N 
ATOM      2  C   UNL     1       8.330  22.572  19.728  0.00  0.00    +0.267 A 
ATOM      3  O   UNL     1       9.113  21.973  19.004  0.00  0.00    -0.267 OA
ATOM      4  C   UNL     1       7.345  23.594  19.224  0.00  0.00    +0.074 A 
ATOM      5  C   UNL     1       7.292  23.925  17.856  0.00  0.00    +0.006 A 
ATOM      6  C   UNL     1       6.388  24.887  17.381  0.00  0.00    +0.000 A 
ATOM      7  C   UNL     1       5.500  25.517  18.272  0.00  0.00    +0.002 A 
ATOM      8  C   UNL     1       5.531  25.208  19.623  0.00  0.00    +0.019 A 
ATOM      9  C   UNL     1       6.475  24.227  20.065  0.00  0.00    +0.088 A 
ATOM     10  N   UNL     1       6.492  23.939  21.454  0.00  0.00    -0.225 NA
ATOM     11  C   UNL     1       7.417  22.970  21.931  0.00  0.00    +0.185 A 
ENDROOT
BRANCH   6  12
ATOM     12  C   UNL     1       6.322  25.199  16.014  0.00  0.00    +0.003 A 
ATOM     13  C   UNL     1       5.950  24.217  15.002  0.00  0.00    +0.018 A 
ATOM     14  C   UNL     1       5.626  22.849  15.298  0.00  0.00    +0.001 A 
ATOM     15  C   UNL     1       5.291  21.893  14.319  0.00  0.00    +0.000 A 
ATOM     16  C   UNL     1       5.264  22.320  12.990  0.00  0.00    +0.002 A 
ATOM     17  C   UNL     1       5.539  23.655  12.682  0.00  0.00    +0.019 A 
ATOM     18  C   UNL     1       5.895  24.608  13.696  0.00  0.00    +0.081 A 
ATOM     19  N   UNL     1       6.181  25.932  13.358  0.00  0.00    -0.244 NA
ATOM     20  C   UNL     1       6.508  26.876  14.264  0.00  0.00    +0.099 A 
ATOM     21  C   UNL     1       6.574  26.505  15.623  0.00  0.00    +0.021 A 
ENDBRANCH   6  12
BRANCH   1  25
ATOM     22  C   UNL     1      10.651  19.530  23.201  0.00  0.00    +0.048 A 
ATOM     23  C   UNL     1       9.395  19.159  22.724  0.00  0.00    +0.016 A 
ATOM     24  C   UNL     1       8.629  20.075  22.014  0.00  0.00    +0.019 A 
ATOM     25  C   UNL     1       9.134  21.344  21.734  0.00  0.00    +0.068 A 
ATOM     26  C   UNL     1      10.362  21.731  22.248  0.00  0.00    +0.019 A 
ATOM     27  C   UNL     1      11.121  20.824  22.973  0.00  0.00    +0.016 A 
BRANCH  22  29
ATOM     28  C   UNL     1      10.985  17.299  24.127  0.00  0.00    +0.123 C 
ATOM     29  N   UNL     1      11.463  18.620  23.966  0.00  0.00    -0.303 N 
ATOM     30  C   UNL     1      12.155  19.170  25.067  0.00  0.00    +0.123 C 
ATOM     31  C   UNL     1      11.744  18.598  26.408  0.00  0.00    +0.164 C 
ATOM     32  O   UNL     1      10.461  17.984  26.413  0.00  0.00    -0.350 OA
ATOM     33  C   UNL     1      10.323  16.961  25.456  0.00  0.00    +0.164 C 
ENDBRANCH  22  29
ENDBRANCH   1  25
TORSDOF 3
ENDMDL
MODEL 6
REMARK VINA RESULT:      -9.9      4.926     10.459
REMARK  Name = 6GIN_IR2.pdb
REMARK  3 active torsions:
REMARK  status: ('A' for Active; 'I' for Inactive)
REMARK    1  A    between atoms: _6  and  _7
REMARK    2  A    between atoms: _10  and  _13
REMARK    3  A    between atoms: _19  and  _24
REMARK                            x       y       z     vdW  Elec       q    Type
REMARK                         _______ _______ _______ _____ _____    ______ ____
ROOT
ATOM      1  N   UNL     1       9.792  22.850  18.583  0.00  0.00    -0.257 N 
ATOM      2  C   UNL     1       9.261  23.030  17.314  0.00  0.00    +0.267 A 
ATOM      3  O   UNL     1       9.865  23.724  16.508  0.00  0.00    -0.267 OA
ATOM      4  C   UNL     1       7.952  22.350  17.011  0.00  0.00    +0.074 A 
ATOM      5  C   UNL     1       7.342  22.498  15.751  0.00  0.00    +0.006 A 
ATOM      6  C   UNL     1       6.115  21.879  15.467  0.00  0.00    +0.000 A 
ATOM      7  C   UNL     1       5.491  21.076  16.439  0.00  0.00    +0.002 A 
ATOM      8  C   UNL     1       6.073  20.912  17.686  0.00  0.00    +0.019 A 
ATOM      9  C   UNL     1       7.320  21.568  17.936  0.00  0.00    +0.088 A 
ATOM     10  N   UNL     1       7.886  21.392  19.225  0.00  0.00    -0.225 NA
ATOM     11  C   UNL     1       9.125  22.030  19.511  0.00  0.00    +0.185 A 
ENDROOT
BRANCH   6  12
ATOM     12  C   UNL     1       5.519  22.012  14.203  0.00  0.00    +0.003 A 
ATOM     13  C   UNL     1       5.588  20.965  13.190  0.00  0.00    +0.018 A 
ATOM     14  C   UNL     1       6.270  19.715  13.378  0.00  0.00    +0.001 A 
ATOM     15  C   UNL     1       6.360  18.713  12.391  0.00  0.00    +0.000 A 
ATOM     16  C   UNL     1       5.731  18.960  11.170  0.00  0.00    +0.002 A 
ATOM     17  C   UNL     1       5.029  20.153  10.976  0.00  0.00    +0.019 A 
ATOM     18  C   UNL     1       4.967  21.168  11.992  0.00  0.00    +0.081 A 
ATOM     19  N   UNL     1       4.273  22.358  11.766  0.00  0.00    -0.244 NA
ATOM     20  C   UNL     1       4.166  23.341  12.683  0.00  0.00    +0.099 A 
ATOM     21  C   UNL     1       4.797  23.163  13.931  0.00  0.00    +0.021 A 
ENDBRANCH   6  12
BRANCH   1  25
ATOM     22  C   UNL     1      13.578  24.241  19.722  0.00  0.00    +0.048 A 
ATOM     23  C   UNL     1      12.704  25.094  19.052  0.00  0.00    +0.016 A 
ATOM     24  C   UNL     1      11.444  24.640  18.684  0.00  0.00    +0.019 A 
ATOM     25  C   UNL     1      11.034  23.352  19.026  0.00  0.00    +0.068 A 
ATOM     26  C   UNL     1      11.919  22.486  19.649  0.00  0.00    +0.019 A 
ATOM     27  C   UNL     1      13.185  22.931  20.002  0.00  0.00    +0.016 A 
BRANCH  22  29
ATOM     28  C   UNL     1      15.755  25.119  19.062  0.00  0.00    +0.123 C 
ATOM     29  N   UNL     1      14.903  24.663  20.095  0.00  0.00    -0.303 N 
ATOM     30  C   UNL     1      15.521  23.941  21.139  0.00  0.00    +0.123 C 
ATOM     31  C   UNL     1      16.785  23.213  20.726  0.00  0.00    +0.164 C 
ATOM     32  O   UNL     1      16.893  22.974  19.328  0.00  0.00    -0.350 OA
ATOM     33  C   UNL     1      16.805  24.143  18.549  0.00  0.00    +0.164 C 
ENDBRANCH  22  29
ENDBRANCH   1  25
TORSDOF 3
ENDMDL
MODEL 7
REMARK VINA RESULT:      -9.8      3.741      5.074
REMARK  Name = 6GIN_IR2.pdb
REMARK  3 active torsions:
REMARK  status: ('A' for Active; 'I' for Inactive)
REMARK    1  A    between atoms: _6  and  _7
REMARK    2  A    between atoms: _10  and  _13
REMARK    3  A    between atoms: _19  and  _24
REMARK                            x       y       z     vdW  Elec       q    Type
REMARK                         _______ _______ _______ _____ _____    ______ ____
ROOT
ATOM      1  N   UNL     1       5.844  22.222  12.353  0.00  0.00    -0.257 N 
ATOM      2  C   UNL     1       6.070  21.925  13.688  0.00  0.00    +0.267 A 
ATOM      3  O   UNL     1       6.155  20.755  14.033  0.00  0.00    -0.267 OA
ATOM      4  C   UNL     1       6.196  23.085  14.641  0.00  0.00    +0.074 A 
ATOM      5  C   UNL     1       6.411  22.865  16.015  0.00  0.00    +0.006 A 
ATOM      6  C   UNL     1       6.515  23.940  16.910  0.00  0.00    +0.000 A 
ATOM      7  C   UNL     1       6.430  25.262  16.434  0.00  0.00    +0.002 A 
ATOM      8  C   UNL     1       6.221  25.505  15.085  0.00  0.00    +0.019 A 
ATOM      9  C   UNL     1       6.113  24.379  14.209  0.00  0.00    +0.088 A 
ATOM     10  N   UNL     1       5.888  24.657  12.837  0.00  0.00    -0.225 NA
ATOM     11  C   UNL     1       5.774  23.564  11.935  0.00  0.00    +0.185 A 
ENDROOT
BRANCH   6  12
ATOM     12  C   UNL     1       6.750  23.718  18.276  0.00  0.00    +0.003 A 
ATOM     13  C   UNL     1       6.109  24.511  19.320  0.00  0.00    +0.018 A 
ATOM     14  C   UNL     1       5.194  25.586  19.058  0.00  0.00    +0.001 A 
ATOM     15  C   UNL     1       4.595  26.369  20.064  0.00  0.00    +0.000 A 
ATOM     16  C   UNL     1       4.909  26.059  21.389  0.00  0.00    +0.002 A 
ATOM     17  C   UNL     1       5.767  24.992  21.670  0.00  0.00    +0.019 A 
ATOM     18  C   UNL     1       6.381  24.219  20.625  0.00  0.00    +0.081 A 
ATOM     19  N   UNL     1       7.248  23.170  20.934  0.00  0.00    -0.244 NA
ATOM     20  C   UNL     1       7.842  22.399  20.000  0.00  0.00    +0.099 A 
ATOM     21  C   UNL     1       7.584  22.674  18.641  0.00  0.00    +0.021 A 
ENDBRANCH   6  12
BRANCH   1  25
ATOM     22  C   UNL     1       5.531  19.576   9.117  0.00  0.00    +0.048 A 
ATOM     23  C   UNL     1       6.774  20.108   9.454  0.00  0.00    +0.016 A 
ATOM     24  C   UNL     1       6.883  20.975  10.533  0.00  0.00    +0.019 A 
ATOM     25  C   UNL     1       5.764  21.275  11.308  0.00  0.00    +0.068 A 
ATOM     26  C   UNL     1       4.519  20.786  10.946  0.00  0.00    +0.019 A 
ATOM     27  C   UNL     1       4.404  19.933   9.858  0.00  0.00    +0.016 A 
BRANCH  22  29
ATOM     28  C   UNL     1       5.636  19.230   6.705  0.00  0.00    +0.123 C 
ATOM     29  N   UNL     1       5.370  18.697   7.988  0.00  0.00    -0.303 N 
ATOM     30  C   UNL     1       4.317  17.760   8.067  0.00  0.00    +0.123 C 
ATOM     31  C   UNL     1       3.249  17.937   7.007  0.00  0.00    +0.164 C 
ATOM     32  O   UNL     1       3.209  19.235   6.426  0.00  0.00    -0.350 OA
ATOM     33  C   UNL     1       4.435  19.636   5.863  0.00  0.00    +0.164 C 
ENDBRANCH  22  29
ENDBRANCH   1  25
TORSDOF 3
ENDMDL
MODEL 8
REMARK VINA RESULT:      -9.7      5.182     10.497
REMARK  Name = 6GIN_IR2.pdb
REMARK  3 active torsions:
REMARK  status: ('A' for Active; 'I' for Inactive)
REMARK    1  A    between atoms: _6  and  _7
REMARK    2  A    between atoms: _10  and  _13
REMARK    3  A    between atoms: _19  and  _24
REMARK                            x       y       z     vdW  Elec       q    Type
REMARK                         _______ _______ _______ _____ _____    ______ ____
ROOT
ATOM      1  N   UNL     1       9.710  26.710  16.486  0.00  0.00    -0.257 N 
ATOM      2  C   UNL     1       9.304  26.215  15.257  0.00  0.00    +0.267 A 
ATOM      3  O   UNL     1      10.072  25.513  14.613  0.00  0.00    -0.267 OA
ATOM      4  C   UNL     1       7.922  26.584  14.787  0.00  0.00    +0.074 A 
ATOM      5  C   UNL     1       7.442  26.133  13.542  0.00  0.00    +0.006 A 
ATOM      6  C   UNL     1       6.161  26.486  13.092  0.00  0.00    +0.000 A 
ATOM      7  C   UNL     1       5.326  27.279  13.900  0.00  0.00    +0.002 A 
ATOM      8  C   UNL     1       5.773  27.733  15.131  0.00  0.00    +0.019 A 
ATOM      9  C   UNL     1       7.090  27.357  15.547  0.00  0.00    +0.088 A 
ATOM     10  N   UNL     1       7.525  27.845  16.805  0.00  0.00    -0.225 NA
ATOM     11  C   UNL     1       8.828  27.493  17.253  0.00  0.00    +0.185 A 
ENDROOT
BRANCH   6  12
ATOM     12  C   UNL     1       5.678  26.019  11.860  0.00  0.00    +0.003 A 
ATOM     13  C   UNL     1       5.180  26.915  10.823  0.00  0.00    +0.018 A 
ATOM     14  C   UNL     1       5.127  28.343  10.960  0.00  0.00    +0.001 A 
ATOM     15  C   UNL     1       4.622  29.209   9.969  0.00  0.00    +0.000 A 
ATOM     16  C   UNL     1       4.163  28.627   8.785  0.00  0.00    +0.002 A 
ATOM     17  C   UNL     1       4.240  27.242   8.613  0.00  0.00    +0.019 A 
ATOM     18  C   UNL     1       4.742  26.378   9.646  0.00  0.00    +0.081 A 
ATOM     19  N   UNL     1       4.792  24.997   9.455  0.00  0.00    -0.244 NA
ATOM     20  C   UNL     1       5.265  24.136  10.379  0.00  0.00    +0.099 A 
ATOM     21  C   UNL     1       5.725  24.657  11.606  0.00  0.00    +0.021 A 
ENDBRANCH   6  12
BRANCH   1  25
ATOM     22  C   UNL     1      13.303  25.993  18.523  0.00  0.00    +0.048 A 
ATOM     23  C   UNL     1      12.245  25.096  18.657  0.00  0.00    +0.016 A 
ATOM     24  C   UNL     1      11.058  25.324  17.974  0.00  0.00    +0.019 A 
ATOM     25  C   UNL     1      10.939  26.419  17.118  0.00  0.00    +0.068 A 
ATOM     26  C   UNL     1      11.972  27.337  17.020  0.00  0.00    +0.019 A 
ATOM     27  C   UNL     1      13.153  27.122  17.715  0.00  0.00    +0.016 A 
BRANCH  22  29
ATOM     28  C   UNL     1      15.732  26.201  18.583  0.00  0.00    +0.123 C 
ATOM     29  N   UNL     1      14.540  25.809  19.236  0.00  0.00    -0.303 N 
ATOM     30  C   UNL     1      14.628  24.663  20.056  0.00  0.00    +0.123 C 
ATOM     31  C   UNL     1      15.703  23.681  19.638  0.00  0.00    +0.164 C 
ATOM     32  O   UNL     1      16.116  23.808  18.283  0.00  0.00    -0.350 OA
ATOM     33  C   UNL     1      16.569  25.098  17.951  0.00  0.00    +0.164 C 
ENDBRANCH  22  29
ENDBRANCH   1  25
TORSDOF 3
ENDMDL
MODEL 9
REMARK VINA RESULT:      -9.7      9.307     13.996
REMARK  Name = 6GIN_IR2.pdb
REMARK  3 active torsions:
REMARK  status: ('A' for Active; 'I' for Inactive)
REMARK    1  A    between atoms: _6  and  _7
REMARK    2  A    between atoms: _10  and  _13
REMARK    3  A    between atoms: _19  and  _24
REMARK                            x       y       z     vdW  Elec       q    Type
REMARK                         _______ _______ _______ _____ _____    ______ ____
ROOT
ATOM      1  N   UNL     1      15.165  24.543  17.442  0.00  0.00    -0.257 N 
ATOM      2  C   UNL     1      15.370  25.709  16.721  0.00  0.00    +0.267 A 
ATOM      3  O   UNL     1      14.954  26.769  17.168  0.00  0.00    -0.267 OA
ATOM      4  C   UNL     1      16.104  25.590  15.411  0.00  0.00    +0.074 A 
ATOM      5  C   UNL     1      16.338  26.727  14.613  0.00  0.00    +0.006 A 
ATOM      6  C   UNL     1      17.007  26.621  13.385  0.00  0.00    +0.000 A 
ATOM      7  C   UNL     1      17.478  25.369  12.947  0.00  0.00    +0.002 A 
ATOM      8  C   UNL     1      17.263  24.235  13.715  0.00  0.00    +0.019 A 
ATOM      9  C   UNL     1      16.568  24.388  14.957  0.00  0.00    +0.088 A 
ATOM     10  N   UNL     1      16.352  23.210  15.715  0.00  0.00    -0.225 NA
ATOM     11  C   UNL     1      15.665  23.321  16.955  0.00  0.00    +0.185 A 
ENDROOT
BRANCH   6  12
ATOM     12  C   UNL     1      17.257  27.758  12.601  0.00  0.00    +0.003 A 
ATOM     13  C   UNL     1      16.377  28.170  11.514  0.00  0.00    +0.018 A 
ATOM     14  C   UNL     1      15.187  27.459  11.137  0.00  0.00    +0.001 A 
ATOM     15  C   UNL     1      14.350  27.841  10.070  0.00  0.00    +0.000 A 
ATOM     16  C   UNL     1      14.704  28.988   9.358  0.00  0.00    +0.002 A 
ATOM     17  C   UNL     1      15.835  29.719   9.731  0.00  0.00    +0.019 A 
ATOM     18  C   UNL     1      16.685  29.299  10.812  0.00  0.00    +0.081 A 
ATOM     19  N   UNL     1      17.819  30.038  11.152  0.00  0.00    -0.244 NA
ATOM     20  C   UNL     1      18.646  29.704  12.163  0.00  0.00    +0.099 A 
ATOM     21  C   UNL     1      18.357  28.543  12.910  0.00  0.00    +0.021 A 
ENDBRANCH   6  12
BRANCH   1  25
ATOM     22  C   UNL     1      13.368  24.091  21.201  0.00  0.00    +0.048 A 
ATOM     23  C   UNL     1      14.737  24.336  21.118  0.00  0.00    +0.016 A 
ATOM     24  C   UNL     1      15.333  24.499  19.874  0.00  0.00    +0.019 A 
ATOM     25  C   UNL     1      14.559  24.467  18.715  0.00  0.00    +0.068 A 
ATOM     26  C   UNL     1      13.206  24.175  18.792  0.00  0.00    +0.019 A 
ATOM     27  C   UNL     1      12.611  23.995  20.032  0.00  0.00    +0.016 A 
BRANCH  22  29
ATOM     28  C   UNL     1      13.527  23.504  23.563  0.00  0.00    +0.123 C 
ATOM     29  N   UNL     1      12.716  23.888  22.469  0.00  0.00    -0.303 N 
ATOM     30  C   UNL     1      11.421  23.327  22.427  0.00  0.00    +0.123 C 
ATOM     31  C   UNL     1      11.306  21.978  23.108  0.00  0.00    +0.164 C 
ATOM     32  O   UNL     1      12.541  21.289  23.254  0.00  0.00    -0.350 OA
ATOM     33  C   UNL     1      13.520  22.030  23.944  0.00  0.00    +0.164 C 
ENDBRANCH  22  29
ENDBRANCH   1  25
TORSDOF 3
ENDMDL
