MODEL 1
REMARK VINA RESULT:      -8.9      0.000      0.000
REMARK  Name = 6GI6_EZB.pdb
REMARK  2 active torsions:
REMARK  status: ('A' for Active; 'I' for Inactive)
REMARK    1  A    between atoms: _1  and  _2
REMARK    2  A    between atoms: _3  and  _13
REMARK                            x       y       z     vdW  Elec       q    Type
REMARK                         _______ _______ _______ _____ _____    ______ ____
ROOT
ATOM      1  C   UNL     1       7.946  24.401  16.888  0.00  0.00    +0.045 C 
ATOM      2  C   UNL     1       7.075  23.163  16.774  0.00  0.00    -0.028 A 
ATOM      3  C   UNL     1       6.883  22.552  15.488  0.00  0.00    +0.068 A 
ATOM      4  C   UNL     1       7.514  23.096  14.218  0.00  0.00    +0.259 A 
ATOM      5  O   UNL     1       8.224  24.080  14.206  0.00  0.00    -0.267 OA
ATOM      6  N   UNL     1       7.287  22.456  12.997  0.00  0.00    -0.313 N 
ATOM      7  C   UNL     1       6.472  21.295  12.926  0.00  0.00    +0.199 A 
ATOM      8  N   UNL     1       5.872  20.773  14.118  0.00  0.00    -0.237 NA
ATOM      9  H   UNL     1       7.665  22.788  12.236  0.00  0.00    +0.170 HD
ATOM     10  C   UNL     1       6.098  21.433  15.391  0.00  0.00    +0.078 A 
ATOM     11  C   UNL     1       5.477  20.875  16.536  0.00  0.00    +0.029 A 
ATOM     12  C   UNL     1       5.663  21.465  17.774  0.00  0.00    +0.011 A 
ATOM     13  C   UNL     1       6.439  22.613  17.906  0.00  0.00    -0.013 A 
ENDROOT
BRANCH  13  14
ATOM     14  C   UNL     1       6.574  23.073  19.219  0.00  0.00    -0.008 A 
ATOM     15  C   UNL     1       5.921  24.219  19.771  0.00  0.00    +0.008 A 
ATOM     16  C   UNL     1       5.042  25.033  19.000  0.00  0.00    +0.012 A 
ATOM     17  C   UNL     1       4.444  26.140  19.598  0.00  0.00    +0.020 A 
ATOM     18  C   UNL     1       4.699  26.437  20.938  0.00  0.00    +0.111 A 
ATOM     19  N   UNL     1       5.531  25.656  21.649  0.00  0.00    -0.255 NA
ATOM     20  C   UNL     1       6.139  24.555  21.081  0.00  0.00    +0.072 A 
ATOM     21  C   UNL     1       6.997  23.773  21.903  0.00  0.00    +0.028 A 
ATOM     22  C   UNL     1       7.633  22.662  21.369  0.00  0.00    +0.003 A 
ATOM     23  C   UNL     1       7.413  22.314  20.036  0.00  0.00    +0.009 A 
ENDBRANCH  13  14
TORSDOF 1
ENDMDL
MODEL 2
REMARK VINA RESULT:      -8.5      3.066      3.734
REMARK  Name = 6GI6_EZB.pdb
REMARK  2 active torsions:
REMARK  status: ('A' for Active; 'I' for Inactive)
REMARK    1  A    between atoms: _1  and  _2
REMARK    2  A    between atoms: _3  and  _13
REMARK                            x       y       z     vdW  Elec       q    Type
REMARK                         _______ _______ _______ _____ _____    ______ ____
ROOT
ATOM      1  C   UNL     1       7.383  27.437  17.406  0.00  0.00    +0.045 C 
ATOM      2  C   UNL     1       6.766  26.463  16.417  0.00  0.00    -0.028 A 
ATOM      3  C   UNL     1       6.380  26.930  15.115  0.00  0.00    +0.068 A 
ATOM      4  C   UNL     1       6.556  28.373  14.674  0.00  0.00    +0.259 A 
ATOM      5  O   UNL     1       7.037  29.225  15.392  0.00  0.00    -0.267 OA
ATOM      6  N   UNL     1       6.158  28.765  13.393  0.00  0.00    -0.313 N 
ATOM      7  C   UNL     1       5.592  27.826  12.491  0.00  0.00    +0.199 A 
ATOM      8  N   UNL     1       5.421  26.462  12.896  0.00  0.00    -0.237 NA
ATOM      9  H   UNL     1       6.263  29.633  13.134  0.00  0.00    +0.170 HD
ATOM     10  C   UNL     1       5.827  26.046  14.226  0.00  0.00    +0.078 A 
ATOM     11  C   UNL     1       5.632  24.686  14.574  0.00  0.00    +0.029 A 
ATOM     12  C   UNL     1       6.004  24.238  15.829  0.00  0.00    +0.011 A 
ATOM     13  C   UNL     1       6.552  25.113  16.764  0.00  0.00    -0.013 A 
ENDROOT
BRANCH  13  14
ATOM     14  C   UNL     1       6.920  24.514  17.971  0.00  0.00    -0.008 A 
ATOM     15  C   UNL     1       6.353  24.803  19.251  0.00  0.00    +0.008 A 
ATOM     16  C   UNL     1       5.323  25.774  19.420  0.00  0.00    +0.012 A 
ATOM     17  C   UNL     1       4.818  26.012  20.696  0.00  0.00    +0.020 A 
ATOM     18  C   UNL     1       5.314  25.301  21.790  0.00  0.00    +0.111 A 
ATOM     19  N   UNL     1       6.286  24.389  21.610  0.00  0.00    -0.255 NA
ATOM     20  C   UNL     1       6.805  24.134  20.358  0.00  0.00    +0.072 A 
ATOM     21  C   UNL     1       7.823  23.147  20.250  0.00  0.00    +0.028 A 
ATOM     22  C   UNL     1       8.377  22.866  19.009  0.00  0.00    +0.003 A 
ATOM     23  C   UNL     1       7.918  23.543  17.878  0.00  0.00    +0.009 A 
ENDBRANCH  13  14
TORSDOF 1
ENDMDL
MODEL 3
REMARK VINA RESULT:      -8.2      3.451      4.949
REMARK  Name = 6GI6_EZB.pdb
REMARK  2 active torsions:
REMARK  status: ('A' for Active; 'I' for Inactive)
REMARK    1  A    between atoms: _1  and  _2
REMARK    2  A    between atoms: _3  and  _13
REMARK                            x       y       z     vdW  Elec       q    Type
REMARK                         _______ _______ _______ _____ _____    ______ ____
ROOT
ATOM      1  C   UNL     1       5.904  23.928  14.780  0.00  0.00    +0.045 C 
ATOM      2  C   UNL     1       6.033  25.426  14.989  0.00  0.00    -0.028 A 
ATOM      3  C   UNL     1       5.775  26.316  13.891  0.00  0.00    +0.068 A 
ATOM      4  C   UNL     1       5.380  25.823  12.510  0.00  0.00    +0.259 A 
ATOM      5  O   UNL     1       5.253  24.646  12.243  0.00  0.00    -0.267 OA
ATOM      6  N   UNL     1       5.145  26.741  11.483  0.00  0.00    -0.313 N 
ATOM      7  C   UNL     1       5.267  28.137  11.715  0.00  0.00    +0.199 A 
ATOM      8  N   UNL     1       5.639  28.612  13.015  0.00  0.00    -0.237 NA
ATOM      9  H   UNL     1       4.911  26.440  10.654  0.00  0.00    +0.170 HD
ATOM     10  C   UNL     1       5.890  27.667  14.087  0.00  0.00    +0.078 A 
ATOM     11  C   UNL     1       6.259  28.194  15.349  0.00  0.00    +0.029 A 
ATOM     12  C   UNL     1       6.507  27.335  16.406  0.00  0.00    +0.011 A 
ATOM     13  C   UNL     1       6.417  25.956  16.238  0.00  0.00    -0.013 A 
ENDROOT
BRANCH  13  14
ATOM     14  C   UNL     1       6.652  25.215  17.400  0.00  0.00    -0.008 A 
ATOM     15  C   UNL     1       7.865  24.529  17.719  0.00  0.00    +0.008 A 
ATOM     16  C   UNL     1       8.989  24.534  16.843  0.00  0.00    +0.012 A 
ATOM     17  C   UNL     1      10.139  23.839  17.212  0.00  0.00    +0.020 A 
ATOM     18  C   UNL     1      10.185  23.157  18.429  0.00  0.00    +0.111 A 
ATOM     19  N   UNL     1       9.114  23.165  19.241  0.00  0.00    -0.255 NA
ATOM     20  C   UNL     1       7.962  23.842  18.900  0.00  0.00    +0.072 A 
ATOM     21  C   UNL     1       6.877  23.811  19.819  0.00  0.00    +0.028 A 
ATOM     22  C   UNL     1       5.698  24.474  19.510  0.00  0.00    +0.003 A 
ATOM     23  C   UNL     1       5.594  25.177  18.309  0.00  0.00    +0.009 A 
ENDBRANCH  13  14
TORSDOF 1
ENDMDL
MODEL 4
REMARK VINA RESULT:      -8.2      3.362      5.981
REMARK  Name = 6GI6_EZB.pdb
REMARK  2 active torsions:
REMARK  status: ('A' for Active; 'I' for Inactive)
REMARK    1  A    between atoms: _1  and  _2
REMARK    2  A    between atoms: _3  and  _13
REMARK                            x       y       z     vdW  Elec       q    Type
REMARK                         _______ _______ _______ _____ _____    ______ ____
ROOT
ATOM      1  C   UNL     1       5.516  25.175  19.141  0.00  0.00    +0.045 C 
ATOM      2  C   UNL     1       6.719  24.318  18.791  0.00  0.00    -0.028 A 
ATOM      3  C   UNL     1       7.340  23.522  19.813  0.00  0.00    +0.068 A 
ATOM      4  C   UNL     1       6.846  23.501  21.250  0.00  0.00    +0.259 A 
ATOM      5  O   UNL     1       5.894  24.152  21.627  0.00  0.00    -0.267 OA
ATOM      6  N   UNL     1       7.495  22.706  22.198  0.00  0.00    -0.313 N 
ATOM      7  C   UNL     1       8.614  21.910  21.834  0.00  0.00    +0.199 A 
ATOM      8  N   UNL     1       9.088  21.923  20.482  0.00  0.00    -0.237 NA
ATOM      9  H   UNL     1       7.197  22.698  23.060  0.00  0.00    +0.170 HD
ATOM     10  C   UNL     1       8.423  22.749  19.490  0.00  0.00    +0.078 A 
ATOM     11  C   UNL     1       8.937  22.726  18.170  0.00  0.00    +0.029 A 
ATOM     12  C   UNL     1       8.338  23.493  17.187  0.00  0.00    +0.011 A 
ATOM     13  C   UNL     1       7.247  24.305  17.483  0.00  0.00    -0.013 A 
ENDROOT
BRANCH  13  14
ATOM     14  C   UNL     1       6.719  24.989  16.385  0.00  0.00    -0.008 A 
ATOM     15  C   UNL     1       6.821  26.395  16.152  0.00  0.00    +0.008 A 
ATOM     16  C   UNL     1       7.494  27.265  17.059  0.00  0.00    +0.012 A 
ATOM     17  C   UNL     1       7.552  28.627  16.776  0.00  0.00    +0.020 A 
ATOM     18  C   UNL     1       6.964  29.127  15.613  0.00  0.00    +0.111 A 
ATOM     19  N   UNL     1       6.335  28.291  14.769  0.00  0.00    -0.255 NA
ATOM     20  C   UNL     1       6.260  26.937  15.026  0.00  0.00    +0.072 A 
ATOM     21  C   UNL     1       5.586  26.117  14.079  0.00  0.00    +0.028 A 
ATOM     22  C   UNL     1       5.483  24.752  14.303  0.00  0.00    +0.003 A 
ATOM     23  C   UNL     1       6.055  24.195  15.448  0.00  0.00    +0.009 A 
ENDBRANCH  13  14
TORSDOF 1
ENDMDL
MODEL 5
REMARK VINA RESULT:      -8.0      3.134      6.154
REMARK  Name = 6GI6_EZB.pdb
REMARK  2 active torsions:
REMARK  status: ('A' for Active; 'I' for Inactive)
REMARK    1  A    between atoms: _1  and  _2
REMARK    2  A    between atoms: _3  and  _13
REMARK                            x       y       z     vdW  Elec       q    Type
REMARK                         _______ _______ _______ _____ _____    ______ ____
ROOT
ATOM      1  C   UNL     1       8.942  24.687  16.574  0.00  0.00    +0.045 C 
ATOM      2  C   UNL     1       7.814  24.749  17.588  0.00  0.00    -0.028 A 
ATOM      3  C   UNL     1       7.888  23.944  18.775  0.00  0.00    +0.068 A 
ATOM      4  C   UNL     1       9.054  23.015  19.067  0.00  0.00    +0.259 A 
ATOM      5  O   UNL     1      10.001  22.895  18.318  0.00  0.00    -0.267 OA
ATOM      6  N   UNL     1       9.065  22.256  20.240  0.00  0.00    -0.313 N 
ATOM      7  C   UNL     1       7.997  22.345  21.171  0.00  0.00    +0.199 A 
ATOM      8  N   UNL     1       6.891  23.218  20.906  0.00  0.00    -0.237 NA
ATOM      9  H   UNL     1       9.766  21.698  20.409  0.00  0.00    +0.170 HD
ATOM     10  C   UNL     1       6.868  24.007  19.688  0.00  0.00    +0.078 A 
ATOM     11  C   UNL     1       5.749  24.850  19.477  0.00  0.00    +0.029 A 
ATOM     12  C   UNL     1       5.680  25.624  18.333  0.00  0.00    +0.011 A 
ATOM     13  C   UNL     1       6.689  25.572  17.375  0.00  0.00    -0.013 A 
ENDROOT
BRANCH  13  14
ATOM     14  C   UNL     1       6.507  26.439  16.294  0.00  0.00    -0.008 A 
ATOM     15  C   UNL     1       6.021  26.069  15.002  0.00  0.00    +0.008 A 
ATOM     16  C   UNL     1       5.670  24.725  14.683  0.00  0.00    +0.012 A 
ATOM     17  C   UNL     1       5.208  24.430  13.402  0.00  0.00    +0.020 A 
ATOM     18  C   UNL     1       5.088  25.444  12.450  0.00  0.00    +0.111 A 
ATOM     19  N   UNL     1       5.424  26.706  12.770  0.00  0.00    -0.255 NA
ATOM     20  C   UNL     1       5.885  27.025  14.031  0.00  0.00    +0.072 A 
ATOM     21  C   UNL     1       6.210  28.385  14.294  0.00  0.00    +0.028 A 
ATOM     22  C   UNL     1       6.683  28.747  15.547  0.00  0.00    +0.003 A 
ATOM     23  C   UNL     1       6.822  27.776  16.540  0.00  0.00    +0.009 A 
ENDBRANCH  13  14
TORSDOF 1
ENDMDL
MODEL 6
REMARK VINA RESULT:      -7.9      9.498     11.501
REMARK  Name = 6GI6_EZB.pdb
REMARK  2 active torsions:
REMARK  status: ('A' for Active; 'I' for Inactive)
REMARK    1  A    between atoms: _1  and  _2
REMARK    2  A    between atoms: _3  and  _13
REMARK                            x       y       z     vdW  Elec       q    Type
REMARK                         _______ _______ _______ _____ _____    ______ ____
ROOT
ATOM      1  C   UNL     1      14.312  25.274  15.004  0.00  0.00    +0.045 C 
ATOM      2  C   UNL     1      15.417  25.615  14.020  0.00  0.00    -0.028 A 
ATOM      3  C   UNL     1      15.267  26.754  13.157  0.00  0.00    +0.068 A 
ATOM      4  C   UNL     1      14.036  27.644  13.179  0.00  0.00    +0.259 A 
ATOM      5  O   UNL     1      13.101  27.453  13.927  0.00  0.00    -0.267 OA
ATOM      6  N   UNL     1      13.951  28.736  12.312  0.00  0.00    -0.313 N 
ATOM      7  C   UNL     1      15.007  29.031  11.409  0.00  0.00    +0.199 A 
ATOM      8  N   UNL     1      16.172  28.198  11.381  0.00  0.00    -0.237 NA
ATOM      9  H   UNL     1      13.209  29.266  12.327  0.00  0.00    +0.170 HD
ATOM     10  C   UNL     1      16.269  27.058  12.274  0.00  0.00    +0.078 A 
ATOM     11  C   UNL     1      17.443  26.267  12.200  0.00  0.00    +0.029 A 
ATOM     12  C   UNL     1      17.585  25.170  13.031  0.00  0.00    +0.011 A 
ATOM     13  C   UNL     1      16.580  24.821  13.928  0.00  0.00    -0.013 A 
ENDROOT
BRANCH  13  14
ATOM     14  C   UNL     1      16.878  23.719  14.733  0.00  0.00    -0.008 A 
ATOM     15  C   UNL     1      17.403  23.775  16.061  0.00  0.00    +0.008 A 
ATOM     16  C   UNL     1      17.687  25.012  16.710  0.00  0.00    +0.012 A 
ATOM     17  C   UNL     1      18.203  24.996  18.004  0.00  0.00    +0.020 A 
ATOM     18  C   UNL     1      18.429  23.781  18.654  0.00  0.00    +0.111 A 
ATOM     19  N   UNL     1      18.155  22.625  18.024  0.00  0.00    -0.255 NA
ATOM     20  C   UNL     1      17.645  22.611  16.743  0.00  0.00    +0.072 A 
ATOM     21  C   UNL     1      17.371  21.348  16.150  0.00  0.00    +0.028 A 
ATOM     22  C   UNL     1      16.864  21.290  14.860  0.00  0.00    +0.003 A 
ATOM     23  C   UNL     1      16.614  22.472  14.163  0.00  0.00    +0.009 A 
ENDBRANCH  13  14
TORSDOF 1
ENDMDL
MODEL 7
REMARK VINA RESULT:      -7.9     11.093     12.792
REMARK  Name = 6GI6_EZB.pdb
REMARK  2 active torsions:
REMARK  status: ('A' for Active; 'I' for Inactive)
REMARK    1  A    between atoms: _1  and  _2
REMARK    2  A    between atoms: _3  and  _13
REMARK                            x       y       z     vdW  Elec       q    Type
REMARK                         _______ _______ _______ _____ _____    ______ ____
ROOT
ATOM      1  C   UNL     1      18.265  28.198  14.676  0.00  0.00    +0.045 C 
ATOM      2  C   UNL     1      17.680  26.796  14.649  0.00  0.00    -0.028 A 
ATOM      3  C   UNL     1      17.880  25.928  15.776  0.00  0.00    +0.068 A 
ATOM      4  C   UNL     1      18.664  26.347  17.008  0.00  0.00    +0.259 A 
ATOM      5  O   UNL     1      19.170  27.444  17.122  0.00  0.00    -0.267 OA
ATOM      6  N   UNL     1      18.824  25.454  18.070  0.00  0.00    -0.313 N 
ATOM      7  C   UNL     1      18.257  24.153  18.016  0.00  0.00    +0.199 A 
ATOM      8  N   UNL     1      17.516  23.747  16.859  0.00  0.00    -0.237 NA
ATOM      9  H   UNL     1      19.298  25.709  18.806  0.00  0.00    +0.170 HD
ATOM     10  C   UNL     1      17.348  24.666  15.748  0.00  0.00    +0.078 A 
ATOM     11  C   UNL     1      16.608  24.210  14.628  0.00  0.00    +0.029 A 
ATOM     12  C   UNL     1      16.417  25.047  13.544  0.00  0.00    +0.011 A 
ATOM     13  C   UNL     1      16.959  26.330  13.530  0.00  0.00    -0.013 A 
ENDROOT
BRANCH  13  14
ATOM     14  C   UNL     1      16.650  27.078  12.392  0.00  0.00    -0.008 A 
ATOM     15  C   UNL     1      15.570  28.007  12.274  0.00  0.00    +0.008 A 
ATOM     16  C   UNL     1      14.670  28.261  13.349  0.00  0.00    +0.012 A 
ATOM     17  C   UNL     1      13.635  29.174  13.166  0.00  0.00    +0.020 A 
ATOM     18  C   UNL     1      13.491  29.835  11.945  0.00  0.00    +0.111 A 
ATOM     19  N   UNL     1      14.350  29.582  10.942  0.00  0.00    -0.255 NA
ATOM     20  C   UNL     1      15.384  28.681  11.096  0.00  0.00    +0.072 A 
ATOM     21  C   UNL     1      16.256  28.477   9.991  0.00  0.00    +0.028 A 
ATOM     22  C   UNL     1      17.304  27.574  10.102  0.00  0.00    +0.003 A 
ATOM     23  C   UNL     1      17.500  26.887  11.301  0.00  0.00    +0.009 A 
ENDBRANCH  13  14
TORSDOF 1
ENDMDL
MODEL 8
REMARK VINA RESULT:      -7.9      4.424      5.999
REMARK  Name = 6GI6_EZB.pdb
REMARK  2 active torsions:
REMARK  status: ('A' for Active; 'I' for Inactive)
REMARK    1  A    between atoms: _1  and  _2
REMARK    2  A    between atoms: _3  and  _13
REMARK                            x       y       z     vdW  Elec       q    Type
REMARK                         _______ _______ _______ _____ _____    ______ ____
ROOT
ATOM      1  C   UNL     1       6.052  23.779  15.002  0.00  0.00    +0.045 C 
ATOM      2  C   UNL     1       5.820  24.233  13.572  0.00  0.00    -0.028 A 
ATOM      3  C   UNL     1       5.365  23.283  12.595  0.00  0.00    +0.068 A 
ATOM      4  C   UNL     1       5.107  21.824  12.927  0.00  0.00    +0.259 A 
ATOM      5  O   UNL     1       5.265  21.365  14.039  0.00  0.00    -0.267 OA
ATOM      6  N   UNL     1       4.667  20.949  11.930  0.00  0.00    -0.313 N 
ATOM      7  C   UNL     1       4.453  21.410  10.604  0.00  0.00    +0.199 A 
ATOM      8  N   UNL     1       4.693  22.785  10.280  0.00  0.00    -0.237 NA
ATOM      9  H   UNL     1       4.516  20.073  12.133  0.00  0.00    +0.170 HD
ATOM     10  C   UNL     1       5.155  23.700  11.307  0.00  0.00    +0.078 A 
ATOM     11  C   UNL     1       5.379  25.047  10.929  0.00  0.00    +0.029 A 
ATOM     12  C   UNL     1       5.817  25.961  11.871  0.00  0.00    +0.011 A 
ATOM     13  C   UNL     1       6.059  25.569  13.185  0.00  0.00    -0.013 A 
ENDROOT
BRANCH  13  14
ATOM     14  C   UNL     1       6.456  26.604  14.036  0.00  0.00    -0.008 A 
ATOM     15  C   UNL     1       7.781  26.818  14.525  0.00  0.00    +0.008 A 
ATOM     16  C   UNL     1       8.863  25.957  14.180  0.00  0.00    +0.012 A 
ATOM     17  C   UNL     1      10.130  26.219  14.697  0.00  0.00    +0.020 A 
ATOM     18  C   UNL     1      10.332  27.318  15.534  0.00  0.00    +0.111 A 
ATOM     19  N   UNL     1       9.299  28.119  15.847  0.00  0.00    -0.255 NA
ATOM     20  C   UNL     1       8.033  27.882  15.351  0.00  0.00    +0.072 A 
ATOM     21  C   UNL     1       6.996  28.782  15.720  0.00  0.00    +0.028 A 
ATOM     22  C   UNL     1       5.708  28.575  15.248  0.00  0.00    +0.003 A 
ATOM     23  C   UNL     1       5.446  27.494  14.405  0.00  0.00    +0.009 A 
ENDBRANCH  13  14
TORSDOF 1
ENDMDL
MODEL 9
REMARK VINA RESULT:      -7.9      1.201      2.687
REMARK  Name = 6GI6_EZB.pdb
REMARK  2 active torsions:
REMARK  status: ('A' for Active; 'I' for Inactive)
REMARK    1  A    between atoms: _1  and  _2
REMARK    2  A    between atoms: _3  and  _13
REMARK                            x       y       z     vdW  Elec       q    Type
REMARK                         _______ _______ _______ _____ _____    ______ ____
ROOT
ATOM      1  C   UNL     1       7.654  24.618  16.407  0.00  0.00    +0.045 C 
ATOM      2  C   UNL     1       6.878  23.318  16.292  0.00  0.00    -0.028 A 
ATOM      3  C   UNL     1       6.703  22.714  15.000  0.00  0.00    +0.068 A 
ATOM      4  C   UNL     1       7.259  23.325  13.725  0.00  0.00    +0.259 A 
ATOM      5  O   UNL     1       7.890  24.361  13.714  0.00  0.00    -0.267 OA
ATOM      6  N   UNL     1       7.052  22.688  12.499  0.00  0.00    -0.313 N 
ATOM      7  C   UNL     1       6.328  21.468  12.428  0.00  0.00    +0.199 A 
ATOM      8  N   UNL     1       5.799  20.883  13.625  0.00  0.00    -0.237 NA
ATOM      9  H   UNL     1       7.385  23.060  11.736  0.00  0.00    +0.170 HD
ATOM     10  C   UNL     1       6.005  21.539  14.903  0.00  0.00    +0.078 A 
ATOM     11  C   UNL     1       5.456  20.918  16.052  0.00  0.00    +0.029 A 
ATOM     12  C   UNL     1       5.626  21.501  17.295  0.00  0.00    +0.011 A 
ATOM     13  C   UNL     1       6.314  22.704  17.429  0.00  0.00    -0.013 A 
ENDROOT
BRANCH  13  14
ATOM     14  C   UNL     1       6.446  23.153  18.746  0.00  0.00    -0.008 A 
ATOM     15  C   UNL     1       7.355  22.630  19.717  0.00  0.00    +0.008 A 
ATOM     16  C   UNL     1       8.242  21.555  19.420  0.00  0.00    +0.012 A 
ATOM     17  C   UNL     1       9.099  21.088  20.415  0.00  0.00    +0.020 A 
ATOM     18  C   UNL     1       9.089  21.676  21.681  0.00  0.00    +0.111 A 
ATOM     19  N   UNL     1       8.244  22.689  21.941  0.00  0.00    -0.255 NA
ATOM     20  C   UNL     1       7.384  23.170  20.976  0.00  0.00    +0.072 A 
ATOM     21  C   UNL     1       6.530  24.252  21.327  0.00  0.00    +0.028 A 
ATOM     22  C   UNL     1       5.645  24.760  20.387  0.00  0.00    +0.003 A 
ATOM     23  C   UNL     1       5.613  24.215  19.102  0.00  0.00    +0.009 A 
ENDBRANCH  13  14
TORSDOF 1
ENDMDL
