MODEL 1
REMARK VINA RESULT:      -7.9      0.000      0.000
REMARK  Name = 4DYM_IYZ.pdb
REMARK  4 active torsions:
REMARK  status: ('A' for Active; 'I' for Inactive)
REMARK    1  A    between atoms: _11  and  _18
REMARK    2  A    between atoms: _11  and  _21
REMARK    3  A    between atoms: _12  and  _13
REMARK    4  A    between atoms: _14  and  _16
REMARK                            x       y       z     vdW  Elec       q    Type
REMARK                         _______ _______ _______ _____ _____    ______ ____
ROOT
ATOM      1  C   UNL     1       5.551  22.427  14.427  0.00  0.00    +0.104 A 
ATOM      2  N   UNL     1       5.667  23.812  14.559  0.00  0.00    -0.210 N 
ATOM      3  N   UNL     1       6.001  24.545  15.503  0.00  0.00    -0.147 NA
ATOM      4  C   UNL     1       6.080  25.895  15.414  0.00  0.00    +0.168 A 
ATOM      5  N   UNL     1       6.409  26.620  16.513  0.00  0.00    -0.219 NA
ATOM      6  C   UNL     1       5.811  26.521  14.189  0.00  0.00    +0.041 A 
ATOM      7  C   UNL     1       5.469  25.722  13.122  0.00  0.00    +0.042 A 
ATOM      8  C   UNL     1       5.389  24.345  13.301  0.00  0.00    +0.164 A 
ATOM      9  N   UNL     1       5.066  23.326  12.496  0.00  0.00    -0.223 NA
ATOM     10  C   UNL     1       5.194  22.166  13.154  0.00  0.00    +0.120 A 
ENDROOT
BRANCH   1  13
ATOM     11  C   UNL     1       6.482  19.335  16.239  0.00  0.00    +0.035 A 
ATOM     12  C   UNL     1       6.235  20.244  15.226  0.00  0.00    +0.004 A 
ATOM     13  C   UNL     1       5.807  21.551  15.481  0.00  0.00    +0.019 A 
ATOM     14  C   UNL     1       5.566  21.941  16.808  0.00  0.00    +0.002 A 
ATOM     15  C   UNL     1       5.802  21.022  17.848  0.00  0.00    +0.000 A 
ATOM     16  C   UNL     1       6.271  19.722  17.556  0.00  0.00    +0.003 A 
BRANCH  11  18
ATOM     17  C   UNL     1       7.014  16.813  16.924  0.00  0.00    +0.077 C 
ATOM     18  C   UNL     1       7.023  17.914  15.869  0.00  0.00    +0.173 C 
ATOM     19  O   UNL     1       7.406  17.637  14.730  0.00  0.00    -0.291 OA
ENDBRANCH  11  18
ENDBRANCH   1  13
BRANCH   5  20
ATOM     20  C   UNL     1       7.110  26.032  17.658  0.00  0.00    +0.114 C 
BRANCH  20  21
ATOM     21  C   UNL     1       6.264  26.051  18.949  0.00  0.00    +0.022 C 
ATOM     22  C   UNL     1       5.015  25.160  18.983  0.00  0.00    +0.002 C 
ATOM     23  C   UNL     1       6.259  24.718  19.735  0.00  0.00    +0.002 C 
ENDBRANCH  20  21
ENDBRANCH   5  20
TORSDOF 4
ENDMDL
MODEL 2
REMARK VINA RESULT:      -7.8      2.819      5.765
REMARK  Name = 4DYM_IYZ.pdb
REMARK  4 active torsions:
REMARK  status: ('A' for Active; 'I' for Inactive)
REMARK    1  A    between atoms: _11  and  _18
REMARK    2  A    between atoms: _11  and  _21
REMARK    3  A    between atoms: _12  and  _13
REMARK    4  A    between atoms: _14  and  _16
REMARK                            x       y       z     vdW  Elec       q    Type
REMARK                         _______ _______ _______ _____ _____    ______ ____
ROOT
ATOM      1  C   UNL     1       5.733  23.715  14.660  0.00  0.00    +0.104 A 
ATOM      2  N   UNL     1       6.014  22.887  15.749  0.00  0.00    -0.210 N 
ATOM      3  N   UNL     1       6.453  23.111  16.888  0.00  0.00    -0.147 NA
ATOM      4  C   UNL     1       6.628  22.149  17.827  0.00  0.00    +0.168 A 
ATOM      5  N   UNL     1       7.159  22.479  19.031  0.00  0.00    -0.219 NA
ATOM      6  C   UNL     1       6.267  20.827  17.534  0.00  0.00    +0.041 A 
ATOM      7  C   UNL     1       5.749  20.565  16.286  0.00  0.00    +0.042 A 
ATOM      8  C   UNL     1       5.621  21.604  15.370  0.00  0.00    +0.164 A 
ATOM      9  N   UNL     1       5.193  21.673  14.104  0.00  0.00    -0.223 NA
ATOM     10  C   UNL     1       5.224  22.943  13.680  0.00  0.00    +0.120 A 
ENDROOT
BRANCH   1  13
ATOM     11  C   UNL     1       6.943  27.026  15.797  0.00  0.00    +0.035 A 
ATOM     12  C   UNL     1       6.715  25.664  15.715  0.00  0.00    +0.004 A 
ATOM     13  C   UNL     1       5.953  25.092  14.691  0.00  0.00    +0.019 A 
ATOM     14  C   UNL     1       5.348  25.932  13.743  0.00  0.00    +0.002 A 
ATOM     15  C   UNL     1       5.561  27.322  13.822  0.00  0.00    +0.000 A 
ATOM     16  C   UNL     1       6.369  27.861  14.847  0.00  0.00    +0.003 A 
BRANCH  11  18
ATOM     17  C   UNL     1       9.345  27.806  16.652  0.00  0.00    +0.077 C 
ATOM     18  C   UNL     1       7.865  27.575  16.936  0.00  0.00    +0.173 C 
ATOM     19  O   UNL     1       7.420  27.884  18.044  0.00  0.00    -0.291 OA
ENDBRANCH  11  18
ENDBRANCH   1  13
BRANCH   5  20
ATOM     20  C   UNL     1       7.142  23.852  19.545  0.00  0.00    +0.114 C 
BRANCH  20  21
ATOM     21  C   UNL     1       5.738  24.295  20.012  0.00  0.00    +0.022 C 
ATOM     22  C   UNL     1       5.610  25.702  20.611  0.00  0.00    +0.002 C 
ATOM     23  C   UNL     1       5.126  25.456  19.191  0.00  0.00    +0.002 C 
ENDBRANCH  20  21
ENDBRANCH   5  20
TORSDOF 4
ENDMDL
MODEL 3
REMARK VINA RESULT:      -7.7      2.955      6.022
REMARK  Name = 4DYM_IYZ.pdb
REMARK  4 active torsions:
REMARK  status: ('A' for Active; 'I' for Inactive)
REMARK    1  A    between atoms: _11  and  _18
REMARK    2  A    between atoms: _11  and  _21
REMARK    3  A    between atoms: _12  and  _13
REMARK    4  A    between atoms: _14  and  _16
REMARK                            x       y       z     vdW  Elec       q    Type
REMARK                         _______ _______ _______ _____ _____    ______ ____
ROOT
ATOM      1  C   UNL     1       6.186  22.508  17.087  0.00  0.00    +0.104 A 
ATOM      2  N   UNL     1       6.226  22.156  15.737  0.00  0.00    -0.210 N 
ATOM      3  N   UNL     1       6.369  22.817  14.696  0.00  0.00    -0.147 NA
ATOM      4  C   UNL     1       6.410  22.268  13.458  0.00  0.00    +0.168 A 
ATOM      5  N   UNL     1       6.522  23.073  12.372  0.00  0.00    -0.219 NA
ATOM      6  C   UNL     1       6.326  20.875  13.320  0.00  0.00    +0.041 A 
ATOM      7  C   UNL     1       6.199  20.123  14.465  0.00  0.00    +0.042 A 
ATOM      8  C   UNL     1       6.142  20.765  15.698  0.00  0.00    +0.164 A 
ATOM      9  N   UNL     1       5.997  20.336  16.958  0.00  0.00    -0.223 NA
ATOM     10  C   UNL     1       6.058  21.374  17.803  0.00  0.00    +0.120 A 
ENDROOT
BRANCH   1  13
ATOM     11  C   UNL     1       5.818  25.523  19.207  0.00  0.00    +0.035 A 
ATOM     12  C   UNL     1       5.751  24.220  18.747  0.00  0.00    +0.004 A 
ATOM     13  C   UNL     1       6.295  23.830  17.520  0.00  0.00    +0.019 A 
ATOM     14  C   UNL     1       6.883  24.804  16.696  0.00  0.00    +0.002 A 
ATOM     15  C   UNL     1       6.948  26.136  17.146  0.00  0.00    +0.000 A 
ATOM     16  C   UNL     1       6.421  26.487  18.410  0.00  0.00    +0.003 A 
BRANCH  11  18
ATOM     17  C   UNL     1       5.736  25.076  21.835  0.00  0.00    +0.077 C 
ATOM     18  C   UNL     1       5.243  25.859  20.623  0.00  0.00    +0.173 C 
ATOM     19  O   UNL     1       4.443  26.781  20.801  0.00  0.00    -0.291 OA
ENDBRANCH  11  18
ENDBRANCH   1  13
BRANCH   5  20
ATOM     20  C   UNL     1       7.044  24.441  12.462  0.00  0.00    +0.114 C 
BRANCH  20  21
ATOM     21  C   UNL     1       5.937  25.509  12.335  0.00  0.00    +0.022 C 
ATOM     22  C   UNL     1       5.129  25.837  13.598  0.00  0.00    +0.002 C 
ATOM     23  C   UNL     1       6.203  26.808  13.135  0.00  0.00    +0.002 C 
ENDBRANCH  20  21
ENDBRANCH   5  20
TORSDOF 4
ENDMDL
MODEL 4
REMARK VINA RESULT:      -7.7      2.118      5.004
REMARK  Name = 4DYM_IYZ.pdb
REMARK  4 active torsions:
REMARK  status: ('A' for Active; 'I' for Inactive)
REMARK    1  A    between atoms: _11  and  _18
REMARK    2  A    between atoms: _11  and  _21
REMARK    3  A    between atoms: _12  and  _13
REMARK    4  A    between atoms: _14  and  _16
REMARK                            x       y       z     vdW  Elec       q    Type
REMARK                         _______ _______ _______ _____ _____    ______ ____
ROOT
ATOM      1  C   UNL     1       6.357  26.042  17.022  0.00  0.00    +0.104 A 
ATOM      2  N   UNL     1       6.230  25.256  15.875  0.00  0.00    -0.210 N 
ATOM      3  N   UNL     1       6.072  24.037  15.700  0.00  0.00    -0.147 NA
ATOM      4  C   UNL     1       5.939  23.466  14.478  0.00  0.00    +0.168 A 
ATOM      5  N   UNL     1       5.818  22.118  14.381  0.00  0.00    -0.219 NA
ATOM      6  C   UNL     1       5.938  24.277  13.335  0.00  0.00    +0.041 A 
ATOM      7  C   UNL     1       6.081  25.634  13.511  0.00  0.00    +0.042 A 
ATOM      8  C   UNL     1       6.234  26.141  14.797  0.00  0.00    +0.164 A 
ATOM      9  N   UNL     1       6.418  27.372  15.290  0.00  0.00    -0.223 NA
ATOM     10  C   UNL     1       6.457  27.327  16.628  0.00  0.00    +0.120 A 
ENDROOT
BRANCH   1  13
ATOM     11  C   UNL     1       7.076  23.758  19.847  0.00  0.00    +0.035 A 
ATOM     12  C   UNL     1       7.076  24.343  18.593  0.00  0.00    +0.004 A 
ATOM     13  C   UNL     1       6.343  25.499  18.306  0.00  0.00    +0.019 A 
ATOM     14  C   UNL     1       5.532  26.057  19.308  0.00  0.00    +0.002 A 
ATOM     15  C   UNL     1       5.514  25.465  20.585  0.00  0.00    +0.000 A 
ATOM     16  C   UNL     1       6.297  24.320  20.850  0.00  0.00    +0.003 A 
BRANCH  11  18
ATOM     17  C   UNL     1       9.031  22.121  19.068  0.00  0.00    +0.077 C 
ATOM     18  C   UNL     1       7.979  22.505  20.101  0.00  0.00    +0.173 C 
ATOM     19  O   UNL     1       7.906  21.848  21.143  0.00  0.00    -0.291 OA
ENDBRANCH  11  18
ENDBRANCH   1  13
BRANCH   5  20
ATOM     20  C   UNL     1       5.378  21.287  15.505  0.00  0.00    +0.114 C 
BRANCH  20  21
ATOM     21  C   UNL     1       6.558  20.724  16.326  0.00  0.00    +0.022 C 
ATOM     22  C   UNL     1       6.224  20.048  17.663  0.00  0.00    +0.002 C 
ATOM     23  C   UNL     1       6.568  19.181  16.463  0.00  0.00    +0.002 C 
ENDBRANCH  20  21
ENDBRANCH   5  20
TORSDOF 4
ENDMDL
MODEL 5
REMARK VINA RESULT:      -7.6      2.365      5.845
REMARK  Name = 4DYM_IYZ.pdb
REMARK  4 active torsions:
REMARK  status: ('A' for Active; 'I' for Inactive)
REMARK    1  A    between atoms: _11  and  _18
REMARK    2  A    between atoms: _11  and  _21
REMARK    3  A    between atoms: _12  and  _13
REMARK    4  A    between atoms: _14  and  _16
REMARK                            x       y       z     vdW  Elec       q    Type
REMARK                         _______ _______ _______ _____ _____    ______ ____
ROOT
ATOM      1  C   UNL     1       6.149  26.964  13.963  0.00  0.00    +0.104 A 
ATOM      2  N   UNL     1       6.109  25.772  13.237  0.00  0.00    -0.210 N 
ATOM      3  N   UNL     1       6.425  24.604  13.514  0.00  0.00    -0.147 NA
ATOM      4  C   UNL     1       6.277  23.563  12.658  0.00  0.00    +0.168 A 
ATOM      5  N   UNL     1       6.694  22.327  13.031  0.00  0.00    -0.219 NA
ATOM      6  C   UNL     1       5.705  23.785  11.398  0.00  0.00    +0.041 A 
ATOM      7  C   UNL     1       5.320  25.068  11.084  0.00  0.00    +0.042 A 
ATOM      8  C   UNL     1       5.526  26.086  12.010  0.00  0.00    +0.164 A 
ATOM      9  N   UNL     1       5.296  27.404  12.001  0.00  0.00    -0.223 NA
ATOM     10  C   UNL     1       5.635  27.935  13.183  0.00  0.00    +0.120 A 
ENDROOT
BRANCH   1  13
ATOM     11  C   UNL     1       6.433  26.354  17.605  0.00  0.00    +0.035 A 
ATOM     12  C   UNL     1       6.003  26.305  16.291  0.00  0.00    +0.004 A 
ATOM     13  C   UNL     1       6.630  27.028  15.271  0.00  0.00    +0.019 A 
ATOM     14  C   UNL     1       7.700  27.877  15.597  0.00  0.00    +0.002 A 
ATOM     15  C   UNL     1       8.140  27.945  16.932  0.00  0.00    +0.000 A 
ATOM     16  C   UNL     1       7.507  27.172  17.931  0.00  0.00    +0.003 A 
BRANCH  11  18
ATOM     17  C   UNL     1       4.752  26.107  19.660  0.00  0.00    +0.077 C 
ATOM     18  C   UNL     1       5.717  25.461  18.672  0.00  0.00    +0.173 C 
ATOM     19  O   UNL     1       5.863  24.236  18.704  0.00  0.00    -0.291 OA
ENDBRANCH  11  18
ENDBRANCH   1  13
BRANCH   5  20
ATOM     20  C   UNL     1       6.879  21.953  14.436  0.00  0.00    +0.114 C 
BRANCH  20  21
ATOM     21  C   UNL     1       5.886  20.865  14.898  0.00  0.00    +0.022 C 
ATOM     22  C   UNL     1       6.399  19.828  15.906  0.00  0.00    +0.002 C 
ATOM     23  C   UNL     1       5.492  20.946  16.393  0.00  0.00    +0.002 C 
ENDBRANCH  20  21
ENDBRANCH   5  20
TORSDOF 4
ENDMDL
MODEL 6
REMARK VINA RESULT:      -7.6      8.279      9.826
REMARK  Name = 4DYM_IYZ.pdb
REMARK  4 active torsions:
REMARK  status: ('A' for Active; 'I' for Inactive)
REMARK    1  A    between atoms: _11  and  _18
REMARK    2  A    between atoms: _11  and  _21
REMARK    3  A    between atoms: _12  and  _13
REMARK    4  A    between atoms: _14  and  _16
REMARK                            x       y       z     vdW  Elec       q    Type
REMARK                         _______ _______ _______ _____ _____    ______ ____
ROOT
ATOM      1  C   UNL     1      12.936  21.911  20.484  0.00  0.00    +0.104 A 
ATOM      2  N   UNL     1      13.604  22.297  21.646  0.00  0.00    -0.210 N 
ATOM      3  N   UNL     1      13.235  22.447  22.822  0.00  0.00    -0.147 NA
ATOM      4  C   UNL     1      14.067  22.808  23.829  0.00  0.00    +0.168 A 
ATOM      5  N   UNL     1      13.566  22.993  25.076  0.00  0.00    -0.219 NA
ATOM      6  C   UNL     1      15.431  22.992  23.563  0.00  0.00    +0.041 A 
ATOM      7  C   UNL     1      15.864  22.801  22.272  0.00  0.00    +0.042 A 
ATOM      8  C   UNL     1      14.943  22.452  21.289  0.00  0.00    +0.164 A 
ATOM      9  N   UNL     1      15.036  22.228  19.973  0.00  0.00    -0.223 NA
ATOM     10  C   UNL     1      13.841  21.868  19.486  0.00  0.00    +0.120 A 
ENDROOT
BRANCH   1  13
ATOM     11  C   UNL     1       9.758  20.092  21.038  0.00  0.00    +0.035 A 
ATOM     12  C   UNL     1      11.098  20.435  21.048  0.00  0.00    +0.004 A 
ATOM     13  C   UNL     1      11.573  21.615  20.467  0.00  0.00    +0.019 A 
ATOM     14  C   UNL     1      10.668  22.457  19.800  0.00  0.00    +0.002 A 
ATOM     15  C   UNL     1       9.303  22.114  19.772  0.00  0.00    +0.000 A 
ATOM     16  C   UNL     1       8.853  20.932  20.403  0.00  0.00    +0.003 A 
BRANCH  11  18
ATOM     17  C   UNL     1      10.246  17.589  21.819  0.00  0.00    +0.077 C 
ATOM     18  C   UNL     1       9.303  18.786  21.771  0.00  0.00    +0.173 C 
ATOM     19  O   UNL     1       8.223  18.712  22.364  0.00  0.00    -0.291 OA
ENDBRANCH  11  18
ENDBRANCH   1  13
BRANCH   5  20
ATOM     20  C   UNL     1      12.292  22.407  25.504  0.00  0.00    +0.114 C 
BRANCH  20  21
ATOM     21  C   UNL     1      12.346  21.849  26.942  0.00  0.00    +0.022 C 
ATOM     22  C   UNL     1      11.076  21.979  27.794  0.00  0.00    +0.002 C 
ATOM     23  C   UNL     1      11.427  20.629  27.193  0.00  0.00    +0.002 C 
ENDBRANCH  20  21
ENDBRANCH   5  20
TORSDOF 4
ENDMDL
MODEL 7
REMARK VINA RESULT:      -7.5     10.185     11.794
REMARK  Name = 4DYM_IYZ.pdb
REMARK  4 active torsions:
REMARK  status: ('A' for Active; 'I' for Inactive)
REMARK    1  A    between atoms: _11  and  _18
REMARK    2  A    between atoms: _11  and  _21
REMARK    3  A    between atoms: _12  and  _13
REMARK    4  A    between atoms: _14  and  _16
REMARK                            x       y       z     vdW  Elec       q    Type
REMARK                         _______ _______ _______ _____ _____    ______ ____
ROOT
ATOM      1  C   UNL     1      17.787  23.116  18.572  0.00  0.00    +0.104 A 
ATOM      2  N   UNL     1      16.826  23.481  19.516  0.00  0.00    -0.210 N 
ATOM      3  N   UNL     1      15.627  23.791  19.425  0.00  0.00    -0.147 NA
ATOM      4  C   UNL     1      14.846  24.090  20.492  0.00  0.00    +0.168 A 
ATOM      5  N   UNL     1      13.558  24.465  20.292  0.00  0.00    -0.219 NA
ATOM      6  C   UNL     1      15.386  24.015  21.783  0.00  0.00    +0.041 A 
ATOM      7  C   UNL     1      16.705  23.642  21.907  0.00  0.00    +0.042 A 
ATOM      8  C   UNL     1      17.446  23.373  20.761  0.00  0.00    +0.164 A 
ATOM      9  N   UNL     1      18.720  23.024  20.545  0.00  0.00    -0.223 NA
ATOM     10  C   UNL     1      18.925  22.833  19.234  0.00  0.00    +0.120 A 
ENDROOT
BRANCH   1  13
ATOM     11  C   UNL     1      17.092  24.227  15.108  0.00  0.00    +0.035 A 
ATOM     12  C   UNL     1      17.386  24.235  16.460  0.00  0.00    +0.004 A 
ATOM     13  C   UNL     1      17.509  23.059  17.206  0.00  0.00    +0.019 A 
ATOM     14  C   UNL     1      17.272  21.825  16.578  0.00  0.00    +0.002 A 
ATOM     15  C   UNL     1      16.960  21.803  15.205  0.00  0.00    +0.000 A 
ATOM     16  C   UNL     1      16.882  23.009  14.473  0.00  0.00    +0.003 A 
BRANCH  11  18
ATOM     17  C   UNL     1      17.692  25.688  12.959  0.00  0.00    +0.077 C 
ATOM     18  C   UNL     1      17.040  25.585  14.333  0.00  0.00    +0.173 C 
ATOM     19  O   UNL     1      16.434  26.565  14.774  0.00  0.00    -0.291 OA
ENDBRANCH  11  18
ENDBRANCH   1  13
BRANCH   5  20
ATOM     20  C   UNL     1      12.830  24.145  19.061  0.00  0.00    +0.114 C 
BRANCH  20  21
ATOM     21  C   UNL     1      12.304  25.402  18.336  0.00  0.00    +0.022 C 
ATOM     22  C   UNL     1      13.235  26.621  18.281  0.00  0.00    +0.002 C 
ATOM     23  C   UNL     1      13.067  25.763  17.038  0.00  0.00    +0.002 C 
ENDBRANCH  20  21
ENDBRANCH   5  20
TORSDOF 4
ENDMDL
MODEL 8
REMARK VINA RESULT:      -7.4      1.976      3.960
REMARK  Name = 4DYM_IYZ.pdb
REMARK  4 active torsions:
REMARK  status: ('A' for Active; 'I' for Inactive)
REMARK    1  A    between atoms: _11  and  _18
REMARK    2  A    between atoms: _11  and  _21
REMARK    3  A    between atoms: _12  and  _13
REMARK    4  A    between atoms: _14  and  _16
REMARK                            x       y       z     vdW  Elec       q    Type
REMARK                         _______ _______ _______ _____ _____    ______ ____
ROOT
ATOM      1  C   UNL     1       6.206  25.915  14.378  0.00  0.00    +0.104 A 
ATOM      2  N   UNL     1       6.444  26.217  15.719  0.00  0.00    -0.210 N 
ATOM      3  N   UNL     1       6.199  25.614  16.777  0.00  0.00    -0.147 NA
ATOM      4  C   UNL     1       6.547  26.076  18.002  0.00  0.00    +0.168 A 
ATOM      5  N   UNL     1       6.195  25.372  19.107  0.00  0.00    -0.219 NA
ATOM      6  C   UNL     1       7.257  27.280  18.107  0.00  0.00    +0.041 A 
ATOM      7  C   UNL     1       7.565  27.947  16.945  0.00  0.00    +0.042 A 
ATOM      8  C   UNL     1       7.153  27.417  15.726  0.00  0.00    +0.164 A 
ATOM      9  N   UNL     1       7.265  27.824  14.456  0.00  0.00    -0.223 NA
ATOM     10  C   UNL     1       6.730  26.910  13.635  0.00  0.00    +0.120 A 
ENDROOT
BRANCH   1  13
ATOM     11  C   UNL     1       5.351  22.322  14.100  0.00  0.00    +0.035 A 
ATOM     12  C   UNL     1       5.954  23.507  14.483  0.00  0.00    +0.004 A 
ATOM     13  C   UNL     1       5.555  24.748  13.977  0.00  0.00    +0.019 A 
ATOM     14  C   UNL     1       4.545  24.793  13.002  0.00  0.00    +0.002 A 
ATOM     15  C   UNL     1       3.931  23.594  12.594  0.00  0.00    +0.000 A 
ATOM     16  C   UNL     1       4.333  22.361  13.155  0.00  0.00    +0.003 A 
BRANCH  11  18
ATOM     17  C   UNL     1       5.673  20.814  16.275  0.00  0.00    +0.077 C 
ATOM     18  C   UNL     1       5.812  20.984  14.766  0.00  0.00    +0.173 C 
ATOM     19  O   UNL     1       6.234  20.035  14.101  0.00  0.00    -0.291 OA
ENDBRANCH  11  18
ENDBRANCH   1  13
BRANCH   5  20
ATOM     20  C   UNL     1       5.863  23.945  19.054  0.00  0.00    +0.114 C 
BRANCH  20  21
ATOM     21  C   UNL     1       7.114  23.044  18.980  0.00  0.00    +0.022 C 
ATOM     22  C   UNL     1       8.316  23.440  19.849  0.00  0.00    +0.002 C 
ATOM     23  C   UNL     1       7.436  22.282  20.289  0.00  0.00    +0.002 C 
ENDBRANCH  20  21
ENDBRANCH   5  20
TORSDOF 4
ENDMDL
MODEL 9
REMARK VINA RESULT:      -7.4      8.140      9.864
REMARK  Name = 4DYM_IYZ.pdb
REMARK  4 active torsions:
REMARK  status: ('A' for Active; 'I' for Inactive)
REMARK    1  A    between atoms: _11  and  _18
REMARK    2  A    between atoms: _11  and  _21
REMARK    3  A    between atoms: _12  and  _13
REMARK    4  A    between atoms: _14  and  _16
REMARK                            x       y       z     vdW  Elec       q    Type
REMARK                         _______ _______ _______ _____ _____    ______ ____
ROOT
ATOM      1  C   UNL     1      12.972  21.829  20.441  0.00  0.00    +0.104 A 
ATOM      2  N   UNL     1      13.633  22.235  21.601  0.00  0.00    -0.210 N 
ATOM      3  N   UNL     1      13.259  22.390  22.775  0.00  0.00    -0.147 NA
ATOM      4  C   UNL     1      14.084  22.770  23.781  0.00  0.00    +0.168 A 
ATOM      5  N   UNL     1      13.578  22.961  25.025  0.00  0.00    -0.219 NA
ATOM      6  C   UNL     1      15.446  22.970  23.516  0.00  0.00    +0.041 A 
ATOM      7  C   UNL     1      15.885  22.773  22.228  0.00  0.00    +0.042 A 
ATOM      8  C   UNL     1      14.971  22.404  21.246  0.00  0.00    +0.164 A 
ATOM      9  N   UNL     1      15.069  22.169  19.932  0.00  0.00    -0.223 NA
ATOM     10  C   UNL     1      13.880  21.789  19.446  0.00  0.00    +0.120 A 
ENDROOT
BRANCH   1  13
ATOM     11  C   UNL     1       9.327  22.160  19.872  0.00  0.00    +0.035 A 
ATOM     12  C   UNL     1      10.686  22.419  19.893  0.00  0.00    +0.004 A 
ATOM     13  C   UNL     1      11.613  21.517  20.424  0.00  0.00    +0.019 A 
ATOM     14  C   UNL     1      11.147  20.329  21.010  0.00  0.00    +0.002 A 
ATOM     15  C   UNL     1       9.765  20.058  21.007  0.00  0.00    +0.000 A 
ATOM     16  C   UNL     1       8.861  20.975  20.427  0.00  0.00    +0.003 A 
BRANCH  11  18
ATOM     17  C   UNL     1       6.882  23.171  19.543  0.00  0.00    +0.077 C 
ATOM     18  C   UNL     1       8.367  23.194  19.197  0.00  0.00    +0.173 C 
ATOM     19  O   UNL     1       8.782  24.070  18.434  0.00  0.00    -0.291 OA
ENDBRANCH  11  18
ENDBRANCH   1  13
BRANCH   5  20
ATOM     20  C   UNL     1      12.310  22.362  25.455  0.00  0.00    +0.114 C 
BRANCH  20  21
ATOM     21  C   UNL     1      12.370  21.813  26.896  0.00  0.00    +0.022 C 
ATOM     22  C   UNL     1      11.116  21.983  27.765  0.00  0.00    +0.002 C 
ATOM     23  C   UNL     1      11.423  20.619  27.169  0.00  0.00    +0.002 C 
ENDBRANCH  20  21
ENDBRANCH   5  20
TORSDOF 4
ENDMDL
