MODEL 1
REMARK VINA RESULT:      -5.3      0.000      0.000
REMARK  Name = 3MTF_A3F.pdb
REMARK  5 active torsions:
REMARK  status: ('A' for Active; 'I' for Inactive)
REMARK    1  A    between atoms: _14  and  _15
REMARK    2  A    between atoms: _16  and  _19
REMARK    3  A    between atoms: _17  and  _24
REMARK    4  A    between atoms: _18  and  _25
REMARK    5  A    between atoms: _20  and  _26
REMARK                            x       y       z     vdW  Elec       q    Type
REMARK                         _______ _______ _______ _____ _____    ______ ____
ROOT
ATOM      1  C   UNL     1       7.760  38.535  24.290  0.00  0.00    +0.035 A 
ATOM      2  C   UNL     1       6.863  39.559  24.508  0.00  0.00    +0.170 A 
ATOM      3  N   UNL     1       6.186  40.101  23.485  0.00  0.00    -0.226 NA
ATOM      4  C   UNL     1       6.306  39.711  22.245  0.00  0.00    +0.100 A 
ATOM      5  C   UNL     1       7.122  38.628  21.951  0.00  0.00    +0.019 A 
ATOM      6  N   UNL     1       6.771  40.076  25.728  0.00  0.00    -0.107 NA
ATOM      7  C   UNL     1       7.887  38.070  22.980  0.00  0.00    +0.004 A 
ENDROOT
BRANCH   5   8
ATOM      8  C   UNL     1       7.276  38.223  20.610  0.00  0.00    +0.005 A 
ATOM      9  C   UNL     1       6.640  38.963  19.630  0.00  0.00    +0.042 A 
ATOM     10  C   UNL     1       6.701  38.585  18.299  0.00  0.00    +0.196 A 
ATOM     11  O   UNL     1       6.048  39.343  17.385  0.00  0.00    -0.287 OA
ATOM     12  C   UNL     1       7.375  37.434  17.907  0.00  0.00    +0.042 A 
ATOM     13  C   UNL     1       7.980  36.665  18.899  0.00  0.00    +0.003 A 
ATOM     14  C   UNL     1       7.916  37.041  20.249  0.00  0.00    +0.000 A 
ENDBRANCH   5   8
BRANCH   1  19
ATOM     15  C   UNL     1       8.667  36.364  27.202  0.00  0.00    +0.175 A 
ATOM     16  C   UNL     1      10.017  36.661  27.315  0.00  0.00    +0.206 A 
ATOM     17  C   UNL     1      10.614  37.600  26.477  0.00  0.00    +0.175 A 
ATOM     18  C   UNL     1       9.870  38.220  25.481  0.00  0.00    +0.040 A 
ATOM     19  C   UNL     1       8.510  37.947  25.342  0.00  0.00    +0.009 A 
ATOM     20  C   UNL     1       7.931  37.008  26.202  0.00  0.00    +0.040 A 
BRANCH  15  22
ATOM     21  C   UNL     1       7.225  35.908  29.172  0.00  0.00    +0.253 C 
ATOM     22  O   UNL     1       8.101  35.443  28.085  0.00  0.00    -0.468 OA
ENDBRANCH  15  22
BRANCH  16  23
ATOM     23  O   UNL     1      10.793  36.053  28.253  0.00  0.00    -0.465 OA
ATOM     24  C   UNL     1      11.349  34.846  27.761  0.00  0.00    +0.253 C 
ENDBRANCH  16  23
BRANCH  17  25
ATOM     25  O   UNL     1      11.931  37.858  26.686  0.00  0.00    -0.468 OA
ATOM     26  C   UNL     1      12.804  37.629  25.570  0.00  0.00    +0.253 C 
ENDBRANCH  17  25
ENDBRANCH   1  19
TORSDOF 5
ENDMDL
MODEL 2
REMARK VINA RESULT:      -5.3      9.940     12.608
REMARK  Name = 3MTF_A3F.pdb
REMARK  5 active torsions:
REMARK  status: ('A' for Active; 'I' for Inactive)
REMARK    1  A    between atoms: _14  and  _15
REMARK    2  A    between atoms: _16  and  _19
REMARK    3  A    between atoms: _17  and  _24
REMARK    4  A    between atoms: _18  and  _25
REMARK    5  A    between atoms: _20  and  _26
REMARK                            x       y       z     vdW  Elec       q    Type
REMARK                         _______ _______ _______ _____ _____    ______ ____
ROOT
ATOM      1  C   UNL     1       6.226  32.626  33.768  0.00  0.00    +0.035 A 
ATOM      2  C   UNL     1       6.587  33.245  34.946  0.00  0.00    +0.170 A 
ATOM      3  N   UNL     1       7.868  33.558  35.185  0.00  0.00    -0.226 NA
ATOM      4  C   UNL     1       8.844  33.322  34.350  0.00  0.00    +0.100 A 
ATOM      5  C   UNL     1       8.554  32.781  33.105  0.00  0.00    +0.019 A 
ATOM      6  N   UNL     1       5.663  33.417  35.884  0.00  0.00    -0.107 NA
ATOM      7  C   UNL     1       7.239  32.391  32.837  0.00  0.00    +0.004 A 
ENDROOT
BRANCH   5   8
ATOM      8  C   UNL     1       9.607  32.499  32.213  0.00  0.00    +0.005 A 
ATOM      9  C   UNL     1      10.532  31.538  32.580  0.00  0.00    +0.042 A 
ATOM     10  C   UNL     1      11.624  31.256  31.777  0.00  0.00    +0.196 A 
ATOM     11  O   UNL     1      12.502  30.312  32.196  0.00  0.00    -0.287 OA
ATOM     12  C   UNL     1      11.845  31.948  30.592  0.00  0.00    +0.042 A 
ATOM     13  C   UNL     1      10.937  32.945  30.242  0.00  0.00    +0.003 A 
ATOM     14  C   UNL     1       9.833  33.239  31.056  0.00  0.00    +0.000 A 
ENDBRANCH   5   8
BRANCH   1  19
ATOM     15  C   UNL     1       3.135  30.554  33.356  0.00  0.00    +0.175 A 
ATOM     16  C   UNL     1       2.208  31.551  33.087  0.00  0.00    +0.206 A 
ATOM     17  C   UNL     1       2.602  32.884  32.994  0.00  0.00    +0.175 A 
ATOM     18  C   UNL     1       3.926  33.238  33.215  0.00  0.00    +0.040 A 
ATOM     19  C   UNL     1       4.883  32.261  33.484  0.00  0.00    +0.009 A 
ATOM     20  C   UNL     1       4.467  30.929  33.563  0.00  0.00    +0.040 A 
BRANCH  15  22
ATOM     21  C   UNL     1       2.637  28.523  34.696  0.00  0.00    +0.253 C 
ATOM     22  O   UNL     1       2.704  29.227  33.405  0.00  0.00    -0.468 OA
ENDBRANCH  15  22
BRANCH  16  23
ATOM     23  O   UNL     1       0.893  31.254  32.897  0.00  0.00    -0.465 OA
ATOM     24  C   UNL     1       0.180  31.262  34.121  0.00  0.00    +0.253 C 
ENDBRANCH  16  23
BRANCH  17  25
ATOM     25  O   UNL     1       1.634  33.787  32.688  0.00  0.00    -0.468 OA
ATOM     26  C   UNL     1       1.943  34.710  31.633  0.00  0.00    +0.253 C 
ENDBRANCH  17  25
ENDBRANCH   1  19
TORSDOF 5
ENDMDL
MODEL 3
REMARK VINA RESULT:      -5.3      2.736      4.714
REMARK  Name = 3MTF_A3F.pdb
REMARK  5 active torsions:
REMARK  status: ('A' for Active; 'I' for Inactive)
REMARK    1  A    between atoms: _14  and  _15
REMARK    2  A    between atoms: _16  and  _19
REMARK    3  A    between atoms: _17  and  _24
REMARK    4  A    between atoms: _18  and  _25
REMARK    5  A    between atoms: _20  and  _26
REMARK                            x       y       z     vdW  Elec       q    Type
REMARK                         _______ _______ _______ _____ _____    ______ ____
ROOT
ATOM      1  C   UNL     1       7.331  37.883  27.555  0.00  0.00    +0.035 A 
ATOM      2  C   UNL     1       7.482  39.227  27.822  0.00  0.00    +0.170 A 
ATOM      3  N   UNL     1       7.483  40.124  26.825  0.00  0.00    -0.226 NA
ATOM      4  C   UNL     1       7.335  39.812  25.565  0.00  0.00    +0.100 A 
ATOM      5  C   UNL     1       7.089  38.491  25.219  0.00  0.00    +0.019 A 
ATOM      6  N   UNL     1       7.745  39.603  29.068  0.00  0.00    -0.107 NA
ATOM      7  C   UNL     1       7.134  37.519  26.222  0.00  0.00    +0.004 A 
ENDROOT
BRANCH   5   8
ATOM      8  C   UNL     1       6.957  38.147  23.859  0.00  0.00    +0.005 A 
ATOM      9  C   UNL     1       8.111  37.956  23.121  0.00  0.00    +0.042 A 
ATOM     10  C   UNL     1       8.052  37.676  21.766  0.00  0.00    +0.196 A 
ATOM     11  O   UNL     1       9.217  37.511  21.093  0.00  0.00    -0.287 OA
ATOM     12  C   UNL     1       6.836  37.608  21.096  0.00  0.00    +0.042 A 
ATOM     13  C   UNL     1       5.675  37.842  21.830  0.00  0.00    +0.003 A 
ATOM     14  C   UNL     1       5.730  38.133  23.201  0.00  0.00    +0.000 A 
ENDBRANCH   5   8
BRANCH   1  19
ATOM     15  C   UNL     1       8.546  35.214  29.882  0.00  0.00    +0.175 A 
ATOM     16  C   UNL     1       7.433  35.079  30.699  0.00  0.00    +0.206 A 
ATOM     17  C   UNL     1       6.278  35.820  30.459  0.00  0.00    +0.175 A 
ATOM     18  C   UNL     1       6.243  36.742  29.422  0.00  0.00    +0.040 A 
ATOM     19  C   UNL     1       7.342  36.900  28.580  0.00  0.00    +0.009 A 
ATOM     20  C   UNL     1       8.487  36.138  28.833  0.00  0.00    +0.040 A 
BRANCH  15  22
ATOM     21  C   UNL     1      10.965  35.061  30.422  0.00  0.00    +0.253 C 
ATOM     22  O   UNL     1       9.670  34.425  30.135  0.00  0.00    -0.468 OA
ENDBRANCH  15  22
BRANCH  16  23
ATOM     23  O   UNL     1       7.434  34.212  31.748  0.00  0.00    -0.465 OA
ATOM     24  C   UNL     1       7.985  34.808  32.910  0.00  0.00    +0.253 C 
ENDBRANCH  16  23
BRANCH  17  25
ATOM     25  O   UNL     1       5.223  35.594  31.285  0.00  0.00    -0.468 OA
ATOM     26  C   UNL     1       3.929  35.919  30.759  0.00  0.00    +0.253 C 
ENDBRANCH  17  25
ENDBRANCH   1  19
TORSDOF 5
ENDMDL
MODEL 4
REMARK VINA RESULT:      -5.3      2.391      7.625
REMARK  Name = 3MTF_A3F.pdb
REMARK  5 active torsions:
REMARK  status: ('A' for Active; 'I' for Inactive)
REMARK    1  A    between atoms: _14  and  _15
REMARK    2  A    between atoms: _16  and  _19
REMARK    3  A    between atoms: _17  and  _24
REMARK    4  A    between atoms: _18  and  _25
REMARK    5  A    between atoms: _20  and  _26
REMARK                            x       y       z     vdW  Elec       q    Type
REMARK                         _______ _______ _______ _____ _____    ______ ____
ROOT
ATOM      1  C   UNL     1       7.925  38.384  22.686  0.00  0.00    +0.035 A 
ATOM      2  C   UNL     1       7.135  39.511  22.765  0.00  0.00    +0.170 A 
ATOM      3  N   UNL     1       6.606  39.892  23.937  0.00  0.00    -0.226 NA
ATOM      4  C   UNL     1       6.797  39.257  25.062  0.00  0.00    +0.100 A 
ATOM      5  C   UNL     1       7.651  38.163  25.086  0.00  0.00    +0.019 A 
ATOM      6  N   UNL     1       6.812  40.142  21.642  0.00  0.00    -0.107 NA
ATOM      7  C   UNL     1       8.179  37.702  23.877  0.00  0.00    +0.004 A 
ENDROOT
BRANCH   5   8
ATOM      8  C   UNL     1       7.837  37.459  26.293  0.00  0.00    +0.005 A 
ATOM      9  C   UNL     1       8.992  36.712  26.438  0.00  0.00    +0.042 A 
ATOM     10  C   UNL     1       9.209  35.949  27.573  0.00  0.00    +0.196 A 
ATOM     11  O   UNL     1      10.355  35.229  27.653  0.00  0.00    -0.287 OA
ATOM     12  C   UNL     1       8.263  35.883  28.589  0.00  0.00    +0.042 A 
ATOM     13  C   UNL     1       7.081  36.601  28.424  0.00  0.00    +0.003 A 
ATOM     14  C   UNL     1       6.853  37.370  27.273  0.00  0.00    +0.000 A 
ENDBRANCH   5   8
BRANCH   1  19
ATOM     15  C   UNL     1      10.449  37.313  20.137  0.00  0.00    +0.175 A 
ATOM     16  C   UNL     1       9.604  36.906  19.115  0.00  0.00    +0.206 A 
ATOM     17  C   UNL     1       8.222  37.026  19.241  0.00  0.00    +0.175 A 
ATOM     18  C   UNL     1       7.669  37.516  20.417  0.00  0.00    +0.040 A 
ATOM     19  C   UNL     1       8.489  37.937  21.462  0.00  0.00    +0.009 A 
ATOM     20  C   UNL     1       9.873  37.816  21.308  0.00  0.00    +0.040 A 
BRANCH  15  22
ATOM     21  C   UNL     1      12.684  38.396  20.105  0.00  0.00    +0.253 C 
ATOM     22  O   UNL     1      11.829  37.208  19.955  0.00  0.00    -0.468 OA
ENDBRANCH  15  22
BRANCH  16  23
ATOM     23  O   UNL     1      10.101  36.388  17.958  0.00  0.00    -0.465 OA
ATOM     24  C   UNL     1      10.510  37.412  17.068  0.00  0.00    +0.253 C 
ENDBRANCH  16  23
BRANCH  17  25
ATOM     25  O   UNL     1       7.474  36.640  18.175  0.00  0.00    -0.468 OA
ATOM     26  C   UNL     1       6.874  37.694  17.409  0.00  0.00    +0.253 C 
ENDBRANCH  17  25
ENDBRANCH   1  19
TORSDOF 5
ENDMDL
MODEL 5
REMARK VINA RESULT:      -5.2      8.483     11.373
REMARK  Name = 3MTF_A3F.pdb
REMARK  5 active torsions:
REMARK  status: ('A' for Active; 'I' for Inactive)
REMARK    1  A    between atoms: _14  and  _15
REMARK    2  A    between atoms: _16  and  _19
REMARK    3  A    between atoms: _17  and  _24
REMARK    4  A    between atoms: _18  and  _25
REMARK    5  A    between atoms: _20  and  _26
REMARK                            x       y       z     vdW  Elec       q    Type
REMARK                         _______ _______ _______ _____ _____    ______ ____
ROOT
ATOM      1  C   UNL     1       7.393  33.808  32.836  0.00  0.00    +0.035 A 
ATOM      2  C   UNL     1       7.098  35.151  32.937  0.00  0.00    +0.170 A 
ATOM      3  N   UNL     1       5.831  35.560  33.100  0.00  0.00    -0.226 NA
ATOM      4  C   UNL     1       4.810  34.751  33.185  0.00  0.00    +0.100 A 
ATOM      5  C   UNL     1       5.030  33.380  33.181  0.00  0.00    +0.019 A 
ATOM      6  N   UNL     1       8.073  36.033  32.752  0.00  0.00    -0.107 NA
ATOM      7  C   UNL     1       6.328  32.914  32.958  0.00  0.00    +0.004 A 
ENDROOT
BRANCH   5   8
ATOM      8  C   UNL     1       3.928  32.504  33.244  0.00  0.00    +0.005 A 
ATOM      9  C   UNL     1       4.176  31.144  33.201  0.00  0.00    +0.042 A 
ATOM     10  C   UNL     1       3.135  30.230  33.198  0.00  0.00    +0.196 A 
ATOM     11  O   UNL     1       3.440  28.910  33.144  0.00  0.00    -0.287 OA
ATOM     12  C   UNL     1       1.810  30.647  33.206  0.00  0.00    +0.042 A 
ATOM     13  C   UNL     1       1.559  32.017  33.206  0.00  0.00    +0.003 A 
ATOM     14  C   UNL     1       2.609  32.947  33.203  0.00  0.00    +0.000 A 
ENDBRANCH   5   8
BRANCH   1  19
ATOM     15  C   UNL     1      10.725  32.246  33.526  0.00  0.00    +0.175 A 
ATOM     16  C   UNL     1      11.265  32.253  32.248  0.00  0.00    +0.206 A 
ATOM     17  C   UNL     1      10.563  32.808  31.180  0.00  0.00    +0.175 A 
ATOM     18  C   UNL     1       9.289  33.323  31.374  0.00  0.00    +0.040 A 
ATOM     19  C   UNL     1       8.718  33.335  32.645  0.00  0.00    +0.009 A 
ATOM     20  C   UNL     1       9.445  32.782  33.704  0.00  0.00    +0.040 A 
BRANCH  15  22
ATOM     21  C   UNL     1      11.038  30.475  35.238  0.00  0.00    +0.253 C 
ATOM     22  O   UNL     1      11.476  31.713  34.574  0.00  0.00    -0.468 OA
ENDBRANCH  15  22
BRANCH  16  23
ATOM     23  O   UNL     1      12.497  31.728  32.004  0.00  0.00    -0.465 OA
ATOM     24  C   UNL     1      12.423  30.338  31.739  0.00  0.00    +0.253 C 
ENDBRANCH  16  23
BRANCH  17  25
ATOM     25  O   UNL     1      11.186  32.806  29.972  0.00  0.00    -0.468 OA
ATOM     26  C   UNL     1      11.329  34.083  29.334  0.00  0.00    +0.253 C 
ENDBRANCH  17  25
ENDBRANCH   1  19
TORSDOF 5
ENDMDL
MODEL 6
REMARK VINA RESULT:      -5.2      0.179      2.493
REMARK  Name = 3MTF_A3F.pdb
REMARK  5 active torsions:
REMARK  status: ('A' for Active; 'I' for Inactive)
REMARK    1  A    between atoms: _14  and  _15
REMARK    2  A    between atoms: _16  and  _19
REMARK    3  A    between atoms: _17  and  _24
REMARK    4  A    between atoms: _18  and  _25
REMARK    5  A    between atoms: _20  and  _26
REMARK                            x       y       z     vdW  Elec       q    Type
REMARK                         _______ _______ _______ _____ _____    ______ ____
ROOT
ATOM      1  C   UNL     1       7.768  38.429  24.303  0.00  0.00    +0.035 A 
ATOM      2  C   UNL     1       6.893  39.467  24.542  0.00  0.00    +0.170 A 
ATOM      3  N   UNL     1       6.225  40.042  23.531  0.00  0.00    -0.226 NA
ATOM      4  C   UNL     1       6.335  39.673  22.283  0.00  0.00    +0.100 A 
ATOM      5  C   UNL     1       7.128  38.579  21.967  0.00  0.00    +0.019 A 
ATOM      6  N   UNL     1       6.813  39.963  25.771  0.00  0.00    -0.107 NA
ATOM      7  C   UNL     1       7.883  37.987  22.984  0.00  0.00    +0.004 A 
ENDROOT
BRANCH   5   8
ATOM      8  C   UNL     1       7.272  38.196  20.619  0.00  0.00    +0.005 A 
ATOM      9  C   UNL     1       6.623  38.948  19.656  0.00  0.00    +0.042 A 
ATOM     10  C   UNL     1       6.673  38.591  18.319  0.00  0.00    +0.196 A 
ATOM     11  O   UNL     1       6.007  39.360  17.424  0.00  0.00    -0.287 OA
ATOM     12  C   UNL     1       7.349  37.450  17.903  0.00  0.00    +0.042 A 
ATOM     13  C   UNL     1       7.968  36.669  18.876  0.00  0.00    +0.003 A 
ATOM     14  C   UNL     1       7.914  37.023  20.233  0.00  0.00    +0.000 A 
ENDBRANCH   5   8
BRANCH   1  19
ATOM     15  C   UNL     1      10.583  37.573  26.617  0.00  0.00    +0.175 A 
ATOM     16  C   UNL     1       9.930  36.710  27.486  0.00  0.00    +0.206 A 
ATOM     17  C   UNL     1       8.592  36.374  27.286  0.00  0.00    +0.175 A 
ATOM     18  C   UNL     1       7.881  36.938  26.235  0.00  0.00    +0.040 A 
ATOM     19  C   UNL     1       8.507  37.806  25.342  0.00  0.00    +0.009 A 
ATOM     20  C   UNL     1       9.853  38.120  25.557  0.00  0.00    +0.040 A 
BRANCH  15  22
ATOM     21  C   UNL     1      12.951  37.336  25.906  0.00  0.00    +0.253 C 
ATOM     22  O   UNL     1      11.933  37.855  26.834  0.00  0.00    -0.468 OA
ENDBRANCH  15  22
BRANCH  16  23
ATOM     23  O   UNL     1      10.578  36.160  28.549  0.00  0.00    -0.465 OA
ATOM     24  C   UNL     1      11.210  34.943  28.194  0.00  0.00    +0.253 C 
ENDBRANCH  16  23
BRANCH  17  25
ATOM     25  O   UNL     1       8.046  35.492  28.162  0.00  0.00    -0.468 OA
ATOM     26  C   UNL     1       7.104  36.034  29.099  0.00  0.00    +0.253 C 
ENDBRANCH  17  25
ENDBRANCH   1  19
TORSDOF 5
ENDMDL
MODEL 7
REMARK VINA RESULT:      -5.2      8.440     11.566
REMARK  Name = 3MTF_A3F.pdb
REMARK  5 active torsions:
REMARK  status: ('A' for Active; 'I' for Inactive)
REMARK    1  A    between atoms: _14  and  _15
REMARK    2  A    between atoms: _16  and  _19
REMARK    3  A    between atoms: _17  and  _24
REMARK    4  A    between atoms: _18  and  _25
REMARK    5  A    between atoms: _20  and  _26
REMARK                            x       y       z     vdW  Elec       q    Type
REMARK                         _______ _______ _______ _____ _____    ______ ____
ROOT
ATOM      1  C   UNL     1       7.340  33.684  32.861  0.00  0.00    +0.035 A 
ATOM      2  C   UNL     1       7.073  35.035  32.934  0.00  0.00    +0.170 A 
ATOM      3  N   UNL     1       5.814  35.473  33.079  0.00  0.00    -0.226 NA
ATOM      4  C   UNL     1       4.775  34.687  33.170  0.00  0.00    +0.100 A 
ATOM      5  C   UNL     1       4.966  33.312  33.194  0.00  0.00    +0.019 A 
ATOM      6  N   UNL     1       8.069  35.892  32.740  0.00  0.00    -0.107 NA
ATOM      7  C   UNL     1       6.256  32.814  32.991  0.00  0.00    +0.004 A 
ENDROOT
BRANCH   5   8
ATOM      8  C   UNL     1       3.846  32.461  33.264  0.00  0.00    +0.005 A 
ATOM      9  C   UNL     1       4.064  31.095  33.233  0.00  0.00    +0.042 A 
ATOM     10  C   UNL     1       3.004  30.204  33.238  0.00  0.00    +0.196 A 
ATOM     11  O   UNL     1       3.280  28.878  33.194  0.00  0.00    -0.287 OA
ATOM     12  C   UNL     1       1.688  30.650  33.242  0.00  0.00    +0.042 A 
ATOM     13  C   UNL     1       1.467  32.026  33.231  0.00  0.00    +0.003 A 
ATOM     14  C   UNL     1       2.537  32.932  33.220  0.00  0.00    +0.000 A 
ENDBRANCH   5   8
BRANCH   1  19
ATOM     15  C   UNL     1      10.619  32.824  31.272  0.00  0.00    +0.175 A 
ATOM     16  C   UNL     1      11.305  32.341  32.376  0.00  0.00    +0.206 A 
ATOM     17  C   UNL     1      10.683  32.252  33.620  0.00  0.00    +0.175 A 
ATOM     18  C   UNL     1       9.376  32.692  33.779  0.00  0.00    +0.040 A 
ATOM     19  C   UNL     1       8.657  33.180  32.689  0.00  0.00    +0.009 A 
ATOM     20  C   UNL     1       9.298  33.249  31.449  0.00  0.00    +0.040 A 
BRANCH  15  22
ATOM     21  C   UNL     1      11.305  34.112  29.262  0.00  0.00    +0.253 C 
ATOM     22  O   UNL     1      11.269  32.861  30.037  0.00  0.00    -0.468 OA
ENDBRANCH  15  22
BRANCH  16  23
ATOM     23  O   UNL     1      12.599  31.930  32.275  0.00  0.00    -0.465 OA
ATOM     24  C   UNL     1      12.680  30.562  31.918  0.00  0.00    +0.253 C 
ENDBRANCH  16  23
BRANCH  17  25
ATOM     25  O   UNL     1      11.418  31.730  34.636  0.00  0.00    -0.468 OA
ATOM     26  C   UNL     1      10.908  30.530  35.233  0.00  0.00    +0.253 C 
ENDBRANCH  17  25
ENDBRANCH   1  19
TORSDOF 5
ENDMDL
MODEL 8
REMARK VINA RESULT:      -5.2      2.325      7.435
REMARK  Name = 3MTF_A3F.pdb
REMARK  5 active torsions:
REMARK  status: ('A' for Active; 'I' for Inactive)
REMARK    1  A    between atoms: _14  and  _15
REMARK    2  A    between atoms: _16  and  _19
REMARK    3  A    between atoms: _17  and  _24
REMARK    4  A    between atoms: _18  and  _25
REMARK    5  A    between atoms: _20  and  _26
REMARK                            x       y       z     vdW  Elec       q    Type
REMARK                         _______ _______ _______ _____ _____    ______ ____
ROOT
ATOM      1  C   UNL     1       7.883  38.287  22.645  0.00  0.00    +0.035 A 
ATOM      2  C   UNL     1       7.109  39.427  22.697  0.00  0.00    +0.170 A 
ATOM      3  N   UNL     1       6.594  39.848  23.861  0.00  0.00    -0.226 NA
ATOM      4  C   UNL     1       6.786  39.244  25.003  0.00  0.00    +0.100 A 
ATOM      5  C   UNL     1       7.625  38.140  25.053  0.00  0.00    +0.019 A 
ATOM      6  N   UNL     1       6.785  40.029  21.558  0.00  0.00    -0.107 NA
ATOM      7  C   UNL     1       8.137  37.637  23.854  0.00  0.00    +0.004 A 
ENDROOT
BRANCH   5   8
ATOM      8  C   UNL     1       7.812  37.469  26.278  0.00  0.00    +0.005 A 
ATOM      9  C   UNL     1       8.966  36.724  26.442  0.00  0.00    +0.042 A 
ATOM     10  C   UNL     1       9.183  35.992  27.597  0.00  0.00    +0.196 A 
ATOM     11  O   UNL     1      10.327  35.272  27.695  0.00  0.00    -0.287 OA
ATOM     12  C   UNL     1       8.238  35.956  28.616  0.00  0.00    +0.042 A 
ATOM     13  C   UNL     1       7.058  36.673  28.434  0.00  0.00    +0.003 A 
ATOM     14  C   UNL     1       6.830  37.410  27.262  0.00  0.00    +0.000 A 
ENDBRANCH   5   8
BRANCH   1  19
ATOM     15  C   UNL     1       8.123  37.036  19.125  0.00  0.00    +0.175 A 
ATOM     16  C   UNL     1       9.502  36.987  18.978  0.00  0.00    +0.206 A 
ATOM     17  C   UNL     1      10.344  37.314  20.039  0.00  0.00    +0.175 A 
ATOM     18  C   UNL     1       9.811  37.739  21.248  0.00  0.00    +0.040 A 
ATOM     19  C   UNL     1       8.431  37.797  21.430  0.00  0.00    +0.009 A 
ATOM     20  C   UNL     1       7.605  37.455  20.355  0.00  0.00    +0.040 A 
BRANCH  15  22
ATOM     21  C   UNL     1       6.837  37.687  17.102  0.00  0.00    +0.253 C 
ATOM     22  O   UNL     1       7.316  36.666  18.048  0.00  0.00    -0.468 OA
ENDBRANCH  15  22
BRANCH  16  23
ATOM     23  O   UNL     1      10.069  36.608  17.800  0.00  0.00    -0.465 OA
ATOM     24  C   UNL     1      10.444  37.732  17.023  0.00  0.00    +0.253 C 
ENDBRANCH  16  23
BRANCH  17  25
ATOM     25  O   UNL     1      11.680  37.198  19.817  0.00  0.00    -0.468 OA
ATOM     26  C   UNL     1      12.528  38.016  20.636  0.00  0.00    +0.253 C 
ENDBRANCH  17  25
ENDBRANCH   1  19
TORSDOF 5
ENDMDL
MODEL 9
REMARK VINA RESULT:      -5.2      2.631      4.047
REMARK  Name = 3MTF_A3F.pdb
REMARK  5 active torsions:
REMARK  status: ('A' for Active; 'I' for Inactive)
REMARK    1  A    between atoms: _14  and  _15
REMARK    2  A    between atoms: _16  and  _19
REMARK    3  A    between atoms: _17  and  _24
REMARK    4  A    between atoms: _18  and  _25
REMARK    5  A    between atoms: _20  and  _26
REMARK                            x       y       z     vdW  Elec       q    Type
REMARK                         _______ _______ _______ _____ _____    ______ ____
ROOT
ATOM      1  C   UNL     1       7.371  38.043  27.539  0.00  0.00    +0.035 A 
ATOM      2  C   UNL     1       7.459  39.400  27.769  0.00  0.00    +0.170 A 
ATOM      3  N   UNL     1       7.406  40.269  26.749  0.00  0.00    -0.226 NA
ATOM      4  C   UNL     1       7.262  39.917  25.499  0.00  0.00    +0.100 A 
ATOM      5  C   UNL     1       7.078  38.576  25.191  0.00  0.00    +0.019 A 
ATOM      6  N   UNL     1       7.715  39.822  29.002  0.00  0.00    -0.107 NA
ATOM      7  C   UNL     1       7.180  37.635  26.219  0.00  0.00    +0.004 A 
ENDROOT
BRANCH   5   8
ATOM      8  C   UNL     1       6.949  38.189  23.842  0.00  0.00    +0.005 A 
ATOM      9  C   UNL     1       8.106  37.991  23.109  0.00  0.00    +0.042 A 
ATOM     10  C   UNL     1       8.051  37.669  21.763  0.00  0.00    +0.196 A 
ATOM     11  O   UNL     1       9.218  37.499  21.096  0.00  0.00    -0.287 OA
ATOM     12  C   UNL     1       6.835  37.565  21.097  0.00  0.00    +0.042 A 
ATOM     13  C   UNL     1       5.672  37.806  21.824  0.00  0.00    +0.003 A 
ATOM     14  C   UNL     1       5.723  38.139  23.185  0.00  0.00    +0.000 A 
ENDBRANCH   5   8
BRANCH   1  19
ATOM     15  C   UNL     1       6.352  35.841  30.389  0.00  0.00    +0.175 A 
ATOM     16  C   UNL     1       7.516  35.103  30.554  0.00  0.00    +0.206 A 
ATOM     17  C   UNL     1       8.640  35.359  29.771  0.00  0.00    +0.175 A 
ATOM     18  C   UNL     1       8.593  36.329  28.779  0.00  0.00    +0.040 A 
ATOM     19  C   UNL     1       7.441  37.091  28.590  0.00  0.00    +0.009 A 
ATOM     20  C   UNL     1       6.330  36.823  29.394  0.00  0.00    +0.040 A 
BRANCH  15  22
ATOM     21  C   UNL     1       3.894  35.835  30.742  0.00  0.00    +0.253 C 
ATOM     22  O   UNL     1       5.262  35.576  31.219  0.00  0.00    -0.468 OA
ENDBRANCH  15  22
BRANCH  16  23
ATOM     23  O   UNL     1       7.596  34.118  31.491  0.00  0.00    -0.465 OA
ATOM     24  C   UNL     1       8.010  34.631  32.745  0.00  0.00    +0.253 C 
ENDBRANCH  16  23
BRANCH  17  25
ATOM     25  O   UNL     1       9.747  34.615  30.029  0.00  0.00    -0.468 OA
ATOM     26  C   UNL     1      10.927  34.962  29.290  0.00  0.00    +0.253 C 
ENDBRANCH  17  25
ENDBRANCH   1  19
TORSDOF 5
ENDMDL
