MODEL 1
REMARK VINA RESULT:      -9.1      0.000      0.000
REMARK  Name = 5OY6_B4E.pdb
REMARK  0 active torsions:
REMARK  status: ('A' for Active; 'I' for Inactive)
REMARK                            x       y       z     vdW  Elec       q    Type
REMARK                         _______ _______ _______ _____ _____    ______ ____
ROOT
ATOM      1 CL   UNL     1       5.683  25.348  21.165  0.00  0.00    -0.082 Cl
ATOM      2  C   UNL     1       5.978  24.846  19.513  0.00  0.00    +0.061 A 
ATOM      3  C   UNL     1       6.063  25.828  18.540  0.00  0.00    +0.012 A 
ATOM      4  C   UNL     1       6.288  25.481  17.214  0.00  0.00    +0.008 A 
ATOM      5  C   UNL     1       6.374  26.489  16.250  0.00  0.00    +0.057 A 
ATOM      6  C   UNL     1       6.003  26.395  14.884  0.00  0.00    +0.167 A 
ATOM      7  N   UNL     1       5.479  25.334  14.174  0.00  0.00    -0.210 NA
ATOM      8  C   UNL     1       5.204  25.494  12.867  0.00  0.00    +0.151 A 
ATOM      9  N   UNL     1       4.659  24.405  12.125  0.00  0.00    -0.218 NA
ATOM     10  C   UNL     1       4.125  23.277  12.815  0.00  0.00    +0.146 C 
ATOM     11  C   UNL     1       5.275  22.408  13.265  0.00  0.00    +0.166 C 
ATOM     12  O   UNL     1       4.939  21.943  14.571  0.00  0.00    -0.348 OA
ATOM     13  C   UNL     1       5.972  21.201  15.222  0.00  0.00    +0.189 C 
ATOM     14  C   UNL     1       5.551  21.166  16.669  0.00  0.00    +0.237 C 
ATOM     15  O   UNL     1       6.540  21.780  17.472  0.00  0.00    -0.473 OA
ATOM     16  C   UNL     1       6.353  23.144  17.833  0.00  0.00    +0.140 A 
ATOM     17  C   UNL     1       5.447  26.726  12.240  0.00  0.00    +0.057 A 
ATOM     18  C   UNL     1       5.980  27.775  12.980  0.00  0.00    +0.105 A 
ATOM     19  N   UNL     1       6.238  27.565  14.311  0.00  0.00    -0.211 N 
ATOM     20  N   UNL     1       6.777  28.436  15.239  0.00  0.00    -0.162 NA
ATOM     21  C   UNL     1       6.862  27.784  16.421  0.00  0.00    +0.124 A 
ATOM     22  C   UNL     1       6.439  24.134  16.861  0.00  0.00    +0.037 A 
ATOM     23  C   UNL     1       6.125  23.504  19.165  0.00  0.00    +0.048 A 
ENDROOT
TORSDOF 0
ENDMDL
MODEL 2
REMARK VINA RESULT:      -8.5      2.490      4.916
REMARK  Name = 5OY6_B4E.pdb
REMARK  0 active torsions:
REMARK  status: ('A' for Active; 'I' for Inactive)
REMARK                            x       y       z     vdW  Elec       q    Type
REMARK                         _______ _______ _______ _____ _____    ______ ____
ROOT
ATOM      1 CL   UNL     1       7.287  17.632  14.921  0.00  0.00    -0.082 Cl
ATOM      2  C   UNL     1       6.658  19.211  15.339  0.00  0.00    +0.061 A 
ATOM      3  C   UNL     1       6.281  20.055  14.308  0.00  0.00    +0.012 A 
ATOM      4  C   UNL     1       5.783  21.322  14.586  0.00  0.00    +0.008 A 
ATOM      5  C   UNL     1       5.405  22.154  13.530  0.00  0.00    +0.057 A 
ATOM      6  C   UNL     1       5.459  23.572  13.501  0.00  0.00    +0.167 A 
ATOM      7  N   UNL     1       5.880  24.467  14.462  0.00  0.00    -0.210 NA
ATOM      8  C   UNL     1       5.836  25.785  14.194  0.00  0.00    +0.151 A 
ATOM      9  N   UNL     1       6.273  26.718  15.179  0.00  0.00    -0.218 NA
ATOM     10  C   UNL     1       7.031  26.262  16.298  0.00  0.00    +0.146 C 
ATOM     11  C   UNL     1       6.082  25.641  17.293  0.00  0.00    +0.166 C 
ATOM     12  O   UNL     1       6.741  24.486  17.810  0.00  0.00    -0.348 OA
ATOM     13  C   UNL     1       5.942  23.685  18.682  0.00  0.00    +0.189 C 
ATOM     14  C   UNL     1       6.685  22.377  18.773  0.00  0.00    +0.237 C 
ATOM     15  O   UNL     1       5.865  21.324  18.304  0.00  0.00    -0.473 OA
ATOM     16  C   UNL     1       6.031  20.902  16.955  0.00  0.00    +0.140 A 
ATOM     17  C   UNL     1       5.367  26.236  12.950  0.00  0.00    +0.057 A 
ATOM     18  C   UNL     1       4.944  25.310  12.003  0.00  0.00    +0.105 A 
ATOM     19  N   UNL     1       5.014  23.978  12.321  0.00  0.00    -0.211 N 
ATOM     20  N   UNL     1       4.641  22.883  11.565  0.00  0.00    -0.162 NA
ATOM     21  C   UNL     1       4.877  21.771  12.298  0.00  0.00    +0.124 A 
ATOM     22  C   UNL     1       5.653  21.744  15.916  0.00  0.00    +0.037 A 
ATOM     23  C   UNL     1       6.532  19.630  16.664  0.00  0.00    +0.048 A 
ENDROOT
TORSDOF 0
ENDMDL
MODEL 3
REMARK VINA RESULT:      -8.5      2.261      3.462
REMARK  Name = 5OY6_B4E.pdb
REMARK  0 active torsions:
REMARK  status: ('A' for Active; 'I' for Inactive)
REMARK                            x       y       z     vdW  Elec       q    Type
REMARK                         _______ _______ _______ _____ _____    ______ ____
ROOT
ATOM      1 CL   UNL     1       5.362  20.414  17.646  0.00  0.00    -0.082 Cl
ATOM      2  C   UNL     1       5.862  21.487  16.356  0.00  0.00    +0.061 A 
ATOM      3  C   UNL     1       5.965  22.839  16.637  0.00  0.00    +0.012 A 
ATOM      4  C   UNL     1       6.350  23.734  15.647  0.00  0.00    +0.008 A 
ATOM      5  C   UNL     1       6.451  25.092  15.956  0.00  0.00    +0.057 A 
ATOM      6  C   UNL     1       6.228  26.184  15.077  0.00  0.00    +0.167 A 
ATOM      7  N   UNL     1       5.866  26.198  13.746  0.00  0.00    -0.210 NA
ATOM      8  C   UNL     1       5.711  27.379  13.121  0.00  0.00    +0.151 A 
ATOM      9  N   UNL     1       5.334  27.404  11.747  0.00  0.00    -0.218 NA
ATOM     10  C   UNL     1       4.827  26.221  11.132  0.00  0.00    +0.146 C 
ATOM     11  C   UNL     1       5.991  25.318  10.806  0.00  0.00    +0.166 C 
ATOM     12  O   UNL     1       5.565  23.989  11.103  0.00  0.00    -0.348 OA
ATOM     13  C   UNL     1       6.583  22.995  10.979  0.00  0.00    +0.189 C 
ATOM     14  C   UNL     1       6.023  21.795  11.698  0.00  0.00    +0.237 C 
ATOM     15  O   UNL     1       6.873  21.436  12.770  0.00  0.00    -0.473 OA
ATOM     16  C   UNL     1       6.541  21.909  14.070  0.00  0.00    +0.140 A 
ATOM     17  C   UNL     1       5.917  28.578  13.821  0.00  0.00    +0.057 A 
ATOM     18  C   UNL     1       6.286  28.533  15.160  0.00  0.00    +0.105 A 
ATOM     19  N   UNL     1       6.424  27.305  15.754  0.00  0.00    -0.211 N 
ATOM     20  N   UNL     1       6.795  27.004  17.052  0.00  0.00    -0.162 NA
ATOM     21  C   UNL     1       6.813  25.658  17.177  0.00  0.00    +0.124 A 
ATOM     22  C   UNL     1       6.644  23.265  14.360  0.00  0.00    +0.037 A 
ATOM     23  C   UNL     1       6.151  21.018  15.075  0.00  0.00    +0.048 A 
ENDROOT
TORSDOF 0
ENDMDL
MODEL 4
REMARK VINA RESULT:      -8.4      2.595      4.766
REMARK  Name = 5OY6_B4E.pdb
REMARK  0 active torsions:
REMARK  status: ('A' for Active; 'I' for Inactive)
REMARK                            x       y       z     vdW  Elec       q    Type
REMARK                         _______ _______ _______ _____ _____    ______ ____
ROOT
ATOM      1 CL   UNL     1       6.596  19.389  12.418  0.00  0.00    -0.082 Cl
ATOM      2  C   UNL     1       6.198  20.670  13.544  0.00  0.00    +0.061 A 
ATOM      3  C   UNL     1       5.991  21.942  13.036  0.00  0.00    +0.012 A 
ATOM      4  C   UNL     1       5.681  22.994  13.888  0.00  0.00    +0.008 A 
ATOM      5  C   UNL     1       5.472  24.267  13.353  0.00  0.00    +0.057 A 
ATOM      6  C   UNL     1       5.741  25.511  13.982  0.00  0.00    +0.167 A 
ATOM      7  N   UNL     1       6.258  25.784  15.231  0.00  0.00    -0.210 NA
ATOM      8  C   UNL     1       6.424  27.065  15.605  0.00  0.00    +0.151 A 
ATOM      9  N   UNL     1       6.961  27.358  16.893  0.00  0.00    -0.218 NA
ATOM     10  C   UNL     1       7.600  26.327  17.643  0.00  0.00    +0.146 C 
ATOM     11  C   UNL     1       6.532  25.467  18.273  0.00  0.00    +0.166 C 
ATOM     12  O   UNL     1       6.989  24.120  18.171  0.00  0.00    -0.348 OA
ATOM     13  C   UNL     1       6.047  23.137  18.603  0.00  0.00    +0.189 C 
ATOM     14  C   UNL     1       6.580  21.840  18.050  0.00  0.00    +0.237 C 
ATOM     15  O   UNL     1       5.628  21.262  17.178  0.00  0.00    -0.473 OA
ATOM     16  C   UNL     1       5.776  21.493  15.782  0.00  0.00    +0.140 A 
ATOM     17  C   UNL     1       6.073  28.106  14.731  0.00  0.00    +0.057 A 
ATOM     18  C   UNL     1       5.550  27.800  13.480  0.00  0.00    +0.105 A 
ATOM     19  N   UNL     1       5.406  26.479  13.142  0.00  0.00    -0.211 N 
ATOM     20  N   UNL     1       4.899  25.929  11.979  0.00  0.00    -0.162 NA
ATOM     21  C   UNL     1       4.937  24.583  12.104  0.00  0.00    +0.124 A 
ATOM     22  C   UNL     1       5.568  22.766  15.266  0.00  0.00    +0.037 A 
ATOM     23  C   UNL     1       6.090  20.441  14.915  0.00  0.00    +0.048 A 
ENDROOT
TORSDOF 0
ENDMDL
MODEL 5
REMARK VINA RESULT:      -8.4      3.084      5.496
REMARK  Name = 5OY6_B4E.pdb
REMARK  0 active torsions:
REMARK  status: ('A' for Active; 'I' for Inactive)
REMARK                            x       y       z     vdW  Elec       q    Type
REMARK                         _______ _______ _______ _____ _____    ______ ____
ROOT
ATOM      1 CL   UNL     1       5.049  28.568  13.011  0.00  0.00    -0.082 Cl
ATOM      2  C   UNL     1       5.712  27.208  13.891  0.00  0.00    +0.061 A 
ATOM      3  C   UNL     1       5.859  26.006  13.219  0.00  0.00    +0.012 A 
ATOM      4  C   UNL     1       6.373  24.895  13.874  0.00  0.00    +0.008 A 
ATOM      5  C   UNL     1       6.516  23.694  13.174  0.00  0.00    +0.057 A 
ATOM      6  C   UNL     1       6.426  22.382  13.706  0.00  0.00    +0.167 A 
ATOM      7  N   UNL     1       6.182  21.958  14.996  0.00  0.00    -0.210 NA
ATOM      8  C   UNL     1       6.143  20.639  15.255  0.00  0.00    +0.151 A 
ATOM      9  N   UNL     1       5.889  20.190  16.584  0.00  0.00    -0.218 NA
ATOM     10  C   UNL     1       5.377  21.104  17.552  0.00  0.00    +0.146 C 
ATOM     11  C   UNL     1       6.518  21.958  18.048  0.00  0.00    +0.166 C 
ATOM     12  O   UNL     1       6.000  23.281  18.185  0.00  0.00    -0.348 OA
ATOM     13  C   UNL     1       6.974  24.269  18.526  0.00  0.00    +0.189 C 
ATOM     14  C   UNL     1       6.293  25.581  18.231  0.00  0.00    +0.237 C 
ATOM     15  O   UNL     1       7.027  26.296  17.256  0.00  0.00    -0.473 OA
ATOM     16  C   UNL     1       6.608  26.195  15.900  0.00  0.00    +0.140 A 
ATOM     17  C   UNL     1       6.347  19.711  14.222  0.00  0.00    +0.057 A 
ATOM     18  C   UNL     1       6.595  20.168  12.933  0.00  0.00    +0.105 A 
ATOM     19  N   UNL     1       6.619  21.522  12.718  0.00  0.00    -0.211 N 
ATOM     20  N   UNL     1       6.860  22.211  11.544  0.00  0.00    -0.162 NA
ATOM     21  C   UNL     1       6.798  23.534  11.818  0.00  0.00    +0.124 A 
ATOM     22  C   UNL     1       6.754  24.992  15.219  0.00  0.00    +0.037 A 
ATOM     23  C   UNL     1       6.087  27.307  15.231  0.00  0.00    +0.048 A 
ENDROOT
TORSDOF 0
ENDMDL
MODEL 6
REMARK VINA RESULT:      -8.3      2.888      4.999
REMARK  Name = 5OY6_B4E.pdb
REMARK  0 active torsions:
REMARK  status: ('A' for Active; 'I' for Inactive)
REMARK                            x       y       z     vdW  Elec       q    Type
REMARK                         _______ _______ _______ _____ _____    ______ ____
ROOT
ATOM      1 CL   UNL     1       8.244  28.904  16.893  0.00  0.00    -0.082 Cl
ATOM      2  C   UNL     1       7.331  27.595  16.174  0.00  0.00    +0.061 A 
ATOM      3  C   UNL     1       7.204  26.418  16.893  0.00  0.00    +0.012 A 
ATOM      4  C   UNL     1       6.495  25.346  16.364  0.00  0.00    +0.008 A 
ATOM      5  C   UNL     1       6.378  24.171  17.110  0.00  0.00    +0.057 A 
ATOM      6  C   UNL     1       6.268  22.850  16.605  0.00  0.00    +0.167 A 
ATOM      7  N   UNL     1       6.251  22.392  15.303  0.00  0.00    -0.210 NA
ATOM      8  C   UNL     1       6.137  21.071  15.076  0.00  0.00    +0.151 A 
ATOM      9  N   UNL     1       6.122  20.586  13.735  0.00  0.00    -0.218 NA
ATOM     10  C   UNL     1       6.533  21.442  12.670  0.00  0.00    +0.146 C 
ATOM     11  C   UNL     1       5.397  22.384  12.353  0.00  0.00    +0.166 C 
ATOM     12  O   UNL     1       5.990  23.656  12.097  0.00  0.00    -0.348 OA
ATOM     13  C   UNL     1       5.057  24.719  11.900  0.00  0.00    +0.189 C 
ATOM     14  C   UNL     1       5.882  25.972  12.040  0.00  0.00    +0.237 C 
ATOM     15  O   UNL     1       5.388  26.758  13.107  0.00  0.00    -0.473 OA
ATOM     16  C   UNL     1       6.024  26.638  14.374  0.00  0.00    +0.140 A 
ATOM     17  C   UNL     1       6.038  20.176  16.153  0.00  0.00    +0.057 A 
ATOM     18  C   UNL     1       6.053  20.667  17.453  0.00  0.00    +0.105 A 
ATOM     19  N   UNL     1       6.177  22.021  17.633  0.00  0.00    -0.211 N 
ATOM     20  N   UNL     1       6.199  22.742  18.813  0.00  0.00    -0.162 NA
ATOM     21  C   UNL     1       6.320  24.051  18.497  0.00  0.00    +0.124 A 
ATOM     22  C   UNL     1       5.899  25.460  15.102  0.00  0.00    +0.037 A 
ATOM     23  C   UNL     1       6.740  27.710  14.916  0.00  0.00    +0.048 A 
ENDROOT
TORSDOF 0
ENDMDL
MODEL 7
REMARK VINA RESULT:      -8.0     10.728     13.176
REMARK  Name = 5OY6_B4E.pdb
REMARK  0 active torsions:
REMARK  status: ('A' for Active; 'I' for Inactive)
REMARK                            x       y       z     vdW  Elec       q    Type
REMARK                         _______ _______ _______ _____ _____    ______ ____
ROOT
ATOM      1 CL   UNL     1      14.666  22.906  25.526  0.00  0.00    -0.082 Cl
ATOM      2  C   UNL     1      13.912  21.326  25.507  0.00  0.00    +0.061 A 
ATOM      3  C   UNL     1      12.841  21.126  24.652  0.00  0.00    +0.012 A 
ATOM      4  C   UNL     1      12.203  19.893  24.605  0.00  0.00    +0.008 A 
ATOM      5  C   UNL     1      11.127  19.714  23.732  0.00  0.00    +0.057 A 
ATOM      6  C   UNL     1      10.013  18.856  23.917  0.00  0.00    +0.167 A 
ATOM      7  N   UNL     1       9.705  18.009  24.962  0.00  0.00    -0.210 NA
ATOM      8  C   UNL     1       8.571  17.287  24.907  0.00  0.00    +0.151 A 
ATOM      9  N   UNL     1       8.242  16.411  25.983  0.00  0.00    -0.218 NA
ATOM     10  C   UNL     1       8.931  16.529  27.226  0.00  0.00    +0.146 C 
ATOM     11  C   UNL     1      10.280  15.866  27.085  0.00  0.00    +0.166 C 
ATOM     12  O   UNL     1      11.209  16.694  27.783  0.00  0.00    -0.348 OA
ATOM     13  C   UNL     1      12.575  16.296  27.655  0.00  0.00    +0.189 C 
ATOM     14  C   UNL     1      13.359  17.495  28.122  0.00  0.00    +0.237 C 
ATOM     15  O   UNL     1      14.194  17.959  27.079  0.00  0.00    -0.473 OA
ATOM     16  C   UNL     1      13.724  19.038  26.280  0.00  0.00    +0.140 A 
ATOM     17  C   UNL     1       7.717  17.400  23.799  0.00  0.00    +0.057 A 
ATOM     18  C   UNL     1       8.055  18.258  22.760  0.00  0.00    +0.105 A 
ATOM     19  N   UNL     1       9.218  18.977  22.865  0.00  0.00    -0.211 N 
ATOM     20  N   UNL     1       9.772  19.870  21.967  0.00  0.00    -0.162 NA
ATOM     21  C   UNL     1      10.934  20.320  22.491  0.00  0.00    +0.124 A 
ATOM     22  C   UNL     1      12.650  18.844  25.419  0.00  0.00    +0.037 A 
ATOM     23  C   UNL     1      14.358  20.284  26.321  0.00  0.00    +0.048 A 
ENDROOT
TORSDOF 0
ENDMDL
MODEL 8
REMARK VINA RESULT:      -7.9      3.359      5.445
REMARK  Name = 5OY6_B4E.pdb
REMARK  0 active torsions:
REMARK  status: ('A' for Active; 'I' for Inactive)
REMARK                            x       y       z     vdW  Elec       q    Type
REMARK                         _______ _______ _______ _____ _____    ______ ____
ROOT
ATOM      1 CL   UNL     1       6.971  28.028  16.135  0.00  0.00    -0.082 Cl
ATOM      2  C   UNL     1       6.386  26.590  15.325  0.00  0.00    +0.061 A 
ATOM      3  C   UNL     1       6.489  25.380  15.990  0.00  0.00    +0.012 A 
ATOM      4  C   UNL     1       6.046  24.209  15.388  0.00  0.00    +0.008 A 
ATOM      5  C   UNL     1       6.157  23.001  16.080  0.00  0.00    +0.057 A 
ATOM      6  C   UNL     1       6.351  21.713  15.519  0.00  0.00    +0.167 A 
ATOM      7  N   UNL     1       6.479  21.325  14.201  0.00  0.00    -0.210 NA
ATOM      8  C   UNL     1       6.660  20.022  13.917  0.00  0.00    +0.151 A 
ATOM      9  N   UNL     1       6.796  19.612  12.558  0.00  0.00    -0.218 NA
ATOM     10  C   UNL     1       7.051  20.585  11.548  0.00  0.00    +0.146 C 
ATOM     11  C   UNL     1       5.751  21.278  11.218  0.00  0.00    +0.166 C 
ATOM     12  O   UNL     1       6.066  22.658  11.039  0.00  0.00    -0.348 OA
ATOM     13  C   UNL     1       4.934  23.506  10.843  0.00  0.00    +0.189 C 
ATOM     14  C   UNL     1       5.466  24.898  11.069  0.00  0.00    +0.237 C 
ATOM     15  O   UNL     1       4.777  25.508  12.143  0.00  0.00    -0.473 OA
ATOM     16  C   UNL     1       5.378  25.465  13.432  0.00  0.00    +0.140 A 
ATOM     17  C   UNL     1       6.717  19.076  14.952  0.00  0.00    +0.057 A 
ATOM     18  C   UNL     1       6.580  19.496  16.270  0.00  0.00    +0.105 A 
ATOM     19  N   UNL     1       6.405  20.835  16.509  0.00  0.00    -0.211 N 
ATOM     20  N   UNL     1       6.229  21.486  17.716  0.00  0.00    -0.162 NA
ATOM     21  C   UNL     1       6.078  22.805  17.458  0.00  0.00    +0.124 A 
ATOM     22  C   UNL     1       5.484  24.254  14.106  0.00  0.00    +0.037 A 
ATOM     23  C   UNL     1       5.829  26.638  14.047  0.00  0.00    +0.048 A 
ENDROOT
TORSDOF 0
ENDMDL
MODEL 9
REMARK VINA RESULT:      -7.9      3.068      5.187
REMARK  Name = 5OY6_B4E.pdb
REMARK  0 active torsions:
REMARK  status: ('A' for Active; 'I' for Inactive)
REMARK                            x       y       z     vdW  Elec       q    Type
REMARK                         _______ _______ _______ _____ _____    ______ ____
ROOT
ATOM      1 CL   UNL     1       5.138  25.815   9.239  0.00  0.00    -0.082 Cl
ATOM      2  C   UNL     1       5.176  25.337  10.923  0.00  0.00    +0.061 A 
ATOM      3  C   UNL     1       5.537  26.288  11.862  0.00  0.00    +0.012 A 
ATOM      4  C   UNL     1       5.590  25.957  13.210  0.00  0.00    +0.008 A 
ATOM      5  C   UNL     1       5.954  26.935  14.139  0.00  0.00    +0.057 A 
ATOM      6  C   UNL     1       6.632  26.731  15.369  0.00  0.00    +0.167 A 
ATOM      7  N   UNL     1       7.095  25.568  15.949  0.00  0.00    -0.210 NA
ATOM      8  C   UNL     1       7.718  25.634  17.139  0.00  0.00    +0.151 A 
ATOM      9  N   UNL     1       8.204  24.438  17.745  0.00  0.00    -0.218 NA
ATOM     10  C   UNL     1       8.309  23.245  16.971  0.00  0.00    +0.146 C 
ATOM     11  C   UNL     1       6.934  22.636  16.848  0.00  0.00    +0.166 C 
ATOM     12  O   UNL     1       6.828  22.150  15.511  0.00  0.00    -0.348 OA
ATOM     13  C   UNL     1       5.538  21.647  15.160  0.00  0.00    +0.189 C 
ATOM     14  C   UNL     1       5.563  21.569  13.655  0.00  0.00    +0.237 C 
ATOM     15  O   UNL     1       4.547  22.390  13.114  0.00  0.00    -0.473 OA
ATOM     16  C   UNL     1       4.905  23.698  12.685  0.00  0.00    +0.140 A 
ATOM     17  C   UNL     1       7.892  26.872  17.777  0.00  0.00    +0.057 A 
ATOM     18  C   UNL     1       7.410  28.026  17.170  0.00  0.00    +0.105 A 
ATOM     19  N   UNL     1       6.789  27.909  15.954  0.00  0.00    -0.211 N 
ATOM     20  N   UNL     1       6.217  28.895  15.171  0.00  0.00    -0.162 NA
ATOM     21  C   UNL     1       5.708  28.305  14.066  0.00  0.00    +0.124 A 
ATOM     22  C   UNL     1       5.268  24.658  13.622  0.00  0.00    +0.037 A 
ATOM     23  C   UNL     1       4.856  24.042  11.330  0.00  0.00    +0.048 A 
ENDROOT
TORSDOF 0
ENDMDL
