MODEL 1
REMARK VINA RESULT:      -8.5      0.000      0.000
REMARK  Name = 6GIN_IR2.pdb
REMARK  3 active torsions:
REMARK  status: ('A' for Active; 'I' for Inactive)
REMARK    1  A    between atoms: _6  and  _7
REMARK    2  A    between atoms: _10  and  _13
REMARK    3  A    between atoms: _19  and  _24
REMARK                            x       y       z     vdW  Elec       q    Type
REMARK                         _______ _______ _______ _____ _____    ______ ____
ROOT
ATOM      1  N   UNL     1       9.111  19.852  20.834  0.00  0.00    -0.257 N 
ATOM      2  C   UNL     1      10.484  20.016  20.932  0.00  0.00    +0.267 A 
ATOM      3  O   UNL     1      11.166  19.095  21.359  0.00  0.00    -0.267 OA
ATOM      4  C   UNL     1      11.052  21.342  20.499  0.00  0.00    +0.074 A 
ATOM      5  C   UNL     1      12.436  21.592  20.583  0.00  0.00    +0.006 A 
ATOM      6  C   UNL     1      12.969  22.830  20.195  0.00  0.00    +0.000 A 
ATOM      7  C   UNL     1      12.123  23.834  19.691  0.00  0.00    +0.002 A 
ATOM      8  C   UNL     1      10.758  23.612  19.596  0.00  0.00    +0.019 A 
ATOM      9  C   UNL     1      10.255  22.338  20.010  0.00  0.00    +0.088 A 
ATOM     10  N   UNL     1       8.853  22.143  19.912  0.00  0.00    -0.225 NA
ATOM     11  C   UNL     1       8.316  20.890  20.315  0.00  0.00    +0.185 A 
ENDROOT
BRANCH   6  12
ATOM     12  C   UNL     1      14.351  23.069  20.261  0.00  0.00    +0.003 A 
ATOM     13  C   UNL     1      15.255  22.746  19.163  0.00  0.00    +0.018 A 
ATOM     14  C   UNL     1      14.830  22.153  17.926  0.00  0.00    +0.001 A 
ATOM     15  C   UNL     1      15.705  21.816  16.874  0.00  0.00    +0.000 A 
ATOM     16  C   UNL     1      17.061  22.096  17.056  0.00  0.00    +0.002 A 
ATOM     17  C   UNL     1      17.494  22.708  18.236  0.00  0.00    +0.019 A 
ATOM     18  C   UNL     1      16.584  23.025  19.302  0.00  0.00    +0.081 A 
ATOM     19  N   UNL     1      17.046  23.621  20.477  0.00  0.00    -0.244 NA
ATOM     20  C   UNL     1      16.241  23.955  21.506  0.00  0.00    +0.099 A 
ATOM     21  C   UNL     1      14.862  23.680  21.395  0.00  0.00    +0.021 A 
ENDBRANCH   6  12
BRANCH   1  25
ATOM     22  C   UNL     1       6.834  16.444  21.716  0.00  0.00    +0.048 A 
ATOM     23  C   UNL     1       7.214  16.697  20.399  0.00  0.00    +0.016 A 
ATOM     24  C   UNL     1       7.978  17.818  20.105  0.00  0.00    +0.019 A 
ATOM     25  C   UNL     1       8.408  18.663  21.129  0.00  0.00    +0.068 A 
ATOM     26  C   UNL     1       7.992  18.440  22.431  0.00  0.00    +0.019 A 
ATOM     27  C   UNL     1       7.213  17.330  22.726  0.00  0.00    +0.016 A 
BRANCH  22  29
ATOM     28  C   UNL     1       6.684  14.118  22.433  0.00  0.00    +0.123 C 
ATOM     29  N   UNL     1       6.018  15.309  22.059  0.00  0.00    -0.303 N 
ATOM     30  C   UNL     1       4.823  15.150  21.324  0.00  0.00    +0.123 C 
ATOM     31  C   UNL     1       4.763  13.877  20.504  0.00  0.00    +0.164 C 
ATOM     32  O   UNL     1       6.033  13.301  20.224  0.00  0.00    -0.350 OA
ATOM     33  C   UNL     1       6.793  13.027  21.377  0.00  0.00    +0.164 C 
ENDBRANCH  22  29
ENDBRANCH   1  25
TORSDOF 3
ENDMDL
MODEL 2
REMARK VINA RESULT:      -8.2      8.275     10.264
REMARK  Name = 6GIN_IR2.pdb
REMARK  3 active torsions:
REMARK  status: ('A' for Active; 'I' for Inactive)
REMARK    1  A    between atoms: _6  and  _7
REMARK    2  A    between atoms: _10  and  _13
REMARK    3  A    between atoms: _19  and  _24
REMARK                            x       y       z     vdW  Elec       q    Type
REMARK                         _______ _______ _______ _____ _____    ______ ____
ROOT
ATOM      1  N   UNL     1       6.026  21.865  12.842  0.00  0.00    -0.257 N 
ATOM      2  C   UNL     1       6.206  21.574  14.185  0.00  0.00    +0.267 A 
ATOM      3  O   UNL     1       5.739  20.539  14.639  0.00  0.00    -0.267 OA
ATOM      4  C   UNL     1       6.977  22.571  15.010  0.00  0.00    +0.074 A 
ATOM      5  C   UNL     1       7.189  22.354  16.385  0.00  0.00    +0.006 A 
ATOM      6  C   UNL     1       7.893  23.286  17.162  0.00  0.00    +0.000 A 
ATOM      7  C   UNL     1       8.422  24.444  16.563  0.00  0.00    +0.002 A 
ATOM      8  C   UNL     1       8.230  24.680  15.210  0.00  0.00    +0.019 A 
ATOM      9  C   UNL     1       7.498  23.707  14.458  0.00  0.00    +0.088 A 
ATOM     10  N   UNL     1       7.306  23.980  13.079  0.00  0.00    -0.225 NA
ATOM     11  C   UNL     1       6.583  23.037  12.298  0.00  0.00    +0.185 A 
ENDROOT
BRANCH   6  12
ATOM     12  C   UNL     1       8.121  23.057  18.528  0.00  0.00    +0.003 A 
ATOM     13  C   UNL     1       7.307  23.670  19.571  0.00  0.00    +0.018 A 
ATOM     14  C   UNL     1       6.212  24.562  19.309  0.00  0.00    +0.001 A 
ATOM     15  C   UNL     1       5.441  25.175  20.317  0.00  0.00    +0.000 A 
ATOM     16  C   UNL     1       5.765  24.876  21.642  0.00  0.00    +0.002 A 
ATOM     17  C   UNL     1       6.801  23.982  21.921  0.00  0.00    +0.019 A 
ATOM     18  C   UNL     1       7.586  23.382  20.876  0.00  0.00    +0.081 A 
ATOM     19  N   UNL     1       8.626  22.505  21.184  0.00  0.00    -0.244 NA
ATOM     20  C   UNL     1       9.388  21.900  20.249  0.00  0.00    +0.099 A 
ATOM     21  C   UNL     1       9.127  22.176  18.891  0.00  0.00    +0.021 A 
ENDBRANCH   6  12
BRANCH   1  25
ATOM     22  C   UNL     1       4.244  19.484   9.889  0.00  0.00    +0.048 A 
ATOM     23  C   UNL     1       5.358  19.008  10.577  0.00  0.00    +0.016 A 
ATOM     24  C   UNL     1       5.944  19.790  11.564  0.00  0.00    +0.019 A 
ATOM     25  C   UNL     1       5.390  21.024  11.903  0.00  0.00    +0.068 A 
ATOM     26  C   UNL     1       4.311  21.519  11.188  0.00  0.00    +0.019 A 
ATOM     27  C   UNL     1       3.735  20.749  10.189  0.00  0.00    +0.016 A 
BRANCH  22  29
ATOM     28  C   UNL     1       4.283  17.537   8.421  0.00  0.00    +0.123 C 
ATOM     29  N   UNL     1       3.625  18.717   8.839  0.00  0.00    -0.303 N 
ATOM     30  C   UNL     1       2.965  19.452   7.830  0.00  0.00    +0.123 C 
ATOM     31  C   UNL     1       3.562  19.283   6.447  0.00  0.00    +0.164 C 
ATOM     32  O   UNL     1       4.909  18.827   6.443  0.00  0.00    -0.350 OA
ATOM     33  C   UNL     1       5.095  17.616   7.135  0.00  0.00    +0.164 C 
ENDBRANCH  22  29
ENDBRANCH   1  25
TORSDOF 3
ENDMDL
MODEL 3
REMARK VINA RESULT:      -8.0      7.898      9.620
REMARK  Name = 6GIN_IR2.pdb
REMARK  3 active torsions:
REMARK  status: ('A' for Active; 'I' for Inactive)
REMARK    1  A    between atoms: _6  and  _7
REMARK    2  A    between atoms: _10  and  _13
REMARK    3  A    between atoms: _19  and  _24
REMARK                            x       y       z     vdW  Elec       q    Type
REMARK                         _______ _______ _______ _____ _____    ______ ____
ROOT
ATOM      1  N   UNL     1       6.042  22.127  13.243  0.00  0.00    -0.257 N 
ATOM      2  C   UNL     1       6.530  21.753  14.486  0.00  0.00    +0.267 A 
ATOM      3  O   UNL     1       6.834  20.584  14.680  0.00  0.00    -0.267 OA
ATOM      4  C   UNL     1       6.652  22.830  15.531  0.00  0.00    +0.074 A 
ATOM      5  C   UNL     1       7.124  22.526  16.823  0.00  0.00    +0.006 A 
ATOM      6  C   UNL     1       7.226  23.521  17.806  0.00  0.00    +0.000 A 
ATOM      7  C   UNL     1       6.878  24.850  17.500  0.00  0.00    +0.002 A 
ATOM      8  C   UNL     1       6.413  25.175  16.236  0.00  0.00    +0.019 A 
ATOM      9  C   UNL     1       6.317  24.127  15.266  0.00  0.00    +0.088 A 
ATOM     10  N   UNL     1       5.828  24.487  13.984  0.00  0.00    -0.225 NA
ATOM     11  C   UNL     1       5.717  23.473  12.994  0.00  0.00    +0.185 A 
ENDROOT
BRANCH   6  12
ATOM     12  C   UNL     1       7.716  23.219  19.086  0.00  0.00    +0.003 A 
ATOM     13  C   UNL     1       9.140  23.217  19.400  0.00  0.00    +0.018 A 
ATOM     14  C   UNL     1      10.169  23.511  18.442  0.00  0.00    +0.001 A 
ATOM     15  C   UNL     1      11.547  23.483  18.736  0.00  0.00    +0.000 A 
ATOM     16  C   UNL     1      11.915  23.164  20.045  0.00  0.00    +0.002 A 
ATOM     17  C   UNL     1      10.931  22.912  21.004  0.00  0.00    +0.019 A 
ATOM     18  C   UNL     1       9.532  22.927  20.675  0.00  0.00    +0.081 A 
ATOM     19  N   UNL     1       8.570  22.655  21.649  0.00  0.00    -0.244 NA
ATOM     20  C   UNL     1       7.243  22.668  21.406  0.00  0.00    +0.099 A 
ATOM     21  C   UNL     1       6.805  22.963  20.099  0.00  0.00    +0.021 A 
ENDBRANCH   6  12
BRANCH   1  25
ATOM     22  C   UNL     1       5.597  19.773   9.804  0.00  0.00    +0.048 A 
ATOM     23  C   UNL     1       6.849  20.293  10.124  0.00  0.00    +0.016 A 
ATOM     24  C   UNL     1       7.002  21.064  11.269  0.00  0.00    +0.019 A 
ATOM     25  C   UNL     1       5.920  21.275  12.124  0.00  0.00    +0.068 A 
ATOM     26  C   UNL     1       4.665  20.799  11.782  0.00  0.00    +0.019 A 
ATOM     27  C   UNL     1       4.504  20.044  10.630  0.00  0.00    +0.016 A 
BRANCH  22  29
ATOM     28  C   UNL     1       5.216  19.698   7.396  0.00  0.00    +0.123 C 
ATOM     29  N   UNL     1       5.389  18.994   8.611  0.00  0.00    -0.303 N 
ATOM     30  C   UNL     1       4.633  17.810   8.757  0.00  0.00    +0.123 C 
ATOM     31  C   UNL     1       3.337  17.800   7.973  0.00  0.00    +0.164 C 
ATOM     32  O   UNL     1       2.859  19.091   7.615  0.00  0.00    -0.350 OA
ATOM     33  C   UNL     1       3.790  19.853   6.884  0.00  0.00    +0.164 C 
ENDBRANCH  22  29
ENDBRANCH   1  25
TORSDOF 3
ENDMDL
MODEL 4
REMARK VINA RESULT:      -7.7      8.729     11.000
REMARK  Name = 6GIN_IR2.pdb
REMARK  3 active torsions:
REMARK  status: ('A' for Active; 'I' for Inactive)
REMARK    1  A    between atoms: _6  and  _7
REMARK    2  A    between atoms: _10  and  _13
REMARK    3  A    between atoms: _19  and  _24
REMARK                            x       y       z     vdW  Elec       q    Type
REMARK                         _______ _______ _______ _____ _____    ______ ____
ROOT
ATOM      1  N   UNL     1       6.060  20.195  12.604  0.00  0.00    -0.257 N 
ATOM      2  C   UNL     1       5.996  21.186  13.572  0.00  0.00    +0.267 A 
ATOM      3  O   UNL     1       5.724  22.331  13.237  0.00  0.00    -0.267 OA
ATOM      4  C   UNL     1       6.274  20.779  14.995  0.00  0.00    +0.074 A 
ATOM      5  C   UNL     1       6.244  21.731  16.032  0.00  0.00    +0.006 A 
ATOM      6  C   UNL     1       6.517  21.361  17.358  0.00  0.00    +0.000 A 
ATOM      7  C   UNL     1       6.799  20.019  17.669  0.00  0.00    +0.002 A 
ATOM      8  C   UNL     1       6.832  19.062  16.667  0.00  0.00    +0.019 A 
ATOM      9  C   UNL     1       6.557  19.484  15.327  0.00  0.00    +0.088 A 
ATOM     10  N   UNL     1       6.609  18.487  14.321  0.00  0.00    -0.225 NA
ATOM     11  C   UNL     1       6.341  18.868  12.977  0.00  0.00    +0.185 A 
ENDROOT
BRANCH   6  12
ATOM     12  C   UNL     1       6.466  22.308  18.393  0.00  0.00    +0.003 A 
ATOM     13  C   UNL     1       7.358  22.258  19.545  0.00  0.00    +0.018 A 
ATOM     14  C   UNL     1       8.358  21.244  19.738  0.00  0.00    +0.001 A 
ATOM     15  C   UNL     1       9.203  21.179  20.863  0.00  0.00    +0.000 A 
ATOM     16  C   UNL     1       9.056  22.174  21.832  0.00  0.00    +0.002 A 
ATOM     17  C   UNL     1       8.117  23.192  21.649  0.00  0.00    +0.019 A 
ATOM     18  C   UNL     1       7.253  23.227  20.500  0.00  0.00    +0.081 A 
ATOM     19  N   UNL     1       6.311  24.246  20.351  0.00  0.00    -0.244 NA
ATOM     20  C   UNL     1       5.483  24.342  19.290  0.00  0.00    +0.099 A 
ATOM     21  C   UNL     1       5.565  23.356  18.285  0.00  0.00    +0.021 A 
ENDBRANCH   6  12
BRANCH   1  25
ATOM     22  C   UNL     1       5.145  20.500   8.525  0.00  0.00    +0.048 A 
ATOM     23  C   UNL     1       4.196  20.877   9.473  0.00  0.00    +0.016 A 
ATOM     24  C   UNL     1       4.501  20.789  10.825  0.00  0.00    +0.019 A 
ATOM     25  C   UNL     1       5.767  20.372  11.234  0.00  0.00    +0.068 A 
ATOM     26  C   UNL     1       6.695  19.951  10.295  0.00  0.00    +0.019 A 
ATOM     27  C   UNL     1       6.388  20.022   8.944  0.00  0.00    +0.016 A 
BRANCH  22  29
ATOM     28  C   UNL     1       3.692  21.238   6.711  0.00  0.00    +0.123 C 
ATOM     29  N   UNL     1       4.859  20.548   7.114  0.00  0.00    -0.303 N 
ATOM     30  C   UNL     1       5.193  19.399   6.366  0.00  0.00    +0.123 C 
ATOM     31  C   UNL     1       4.006  18.711   5.723  0.00  0.00    +0.164 C 
ATOM     32  O   UNL     1       2.755  19.015   6.327  0.00  0.00    -0.350 OA
ATOM     33  C   UNL     1       2.472  20.393   6.371  0.00  0.00    +0.164 C 
ENDBRANCH  22  29
ENDBRANCH   1  25
TORSDOF 3
ENDMDL
MODEL 5
REMARK VINA RESULT:      -7.6      8.404     11.800
REMARK  Name = 6GIN_IR2.pdb
REMARK  3 active torsions:
REMARK  status: ('A' for Active; 'I' for Inactive)
REMARK    1  A    between atoms: _6  and  _7
REMARK    2  A    between atoms: _10  and  _13
REMARK    3  A    between atoms: _19  and  _24
REMARK                            x       y       z     vdW  Elec       q    Type
REMARK                         _______ _______ _______ _____ _____    ______ ____
ROOT
ATOM      1  N   UNL     1       6.260  21.374  14.758  0.00  0.00    -0.257 N 
ATOM      2  C   UNL     1       6.291  20.348  13.825  0.00  0.00    +0.267 A 
ATOM      3  O   UNL     1       6.864  19.305  14.105  0.00  0.00    -0.267 OA
ATOM      4  C   UNL     1       5.605  20.594  12.507  0.00  0.00    +0.074 A 
ATOM      5  C   UNL     1       5.606  19.607  11.503  0.00  0.00    +0.006 A 
ATOM      6  C   UNL     1       4.983  19.835  10.267  0.00  0.00    +0.000 A 
ATOM      7  C   UNL     1       4.322  21.054  10.027  0.00  0.00    +0.002 A 
ATOM      8  C   UNL     1       4.304  22.041  11.000  0.00  0.00    +0.019 A 
ATOM      9  C   UNL     1       4.961  21.769  12.243  0.00  0.00    +0.088 A 
ATOM     10  N   UNL     1       4.936  22.801  13.215  0.00  0.00    -0.225 NA
ATOM     11  C   UNL     1       5.579  22.569  14.463  0.00  0.00    +0.185 A 
ENDROOT
BRANCH   6  12
ATOM     12  C   UNL     1       4.967  18.841   9.275  0.00  0.00    +0.003 A 
ATOM     13  C   UNL     1       4.197  17.611   9.410  0.00  0.00    +0.018 A 
ATOM     14  C   UNL     1       3.394  17.293  10.559  0.00  0.00    +0.001 A 
ATOM     15  C   UNL     1       2.669  16.093  10.702  0.00  0.00    +0.000 A 
ATOM     16  C   UNL     1       2.735  15.176   9.651  0.00  0.00    +0.002 A 
ATOM     17  C   UNL     1       3.479  15.480   8.507  0.00  0.00    +0.019 A 
ATOM     18  C   UNL     1       4.225  16.703   8.392  0.00  0.00    +0.081 A 
ATOM     19  N   UNL     1       4.973  16.973   7.245  0.00  0.00    -0.244 NA
ATOM     20  C   UNL     1       5.681  18.107   7.071  0.00  0.00    +0.099 A 
ATOM     21  C   UNL     1       5.674  19.067   8.105  0.00  0.00    +0.021 A 
ENDBRANCH   6  12
BRANCH   1  25
ATOM     22  C   UNL     1       7.719  21.360  18.687  0.00  0.00    +0.048 A 
ATOM     23  C   UNL     1       6.624  20.565  18.357  0.00  0.00    +0.016 A 
ATOM     24  C   UNL     1       6.146  20.558  17.053  0.00  0.00    +0.019 A 
ATOM     25  C   UNL     1       6.788  21.304  16.065  0.00  0.00    +0.068 A 
ATOM     26  C   UNL     1       7.848  22.132  16.401  0.00  0.00    +0.019 A 
ATOM     27  C   UNL     1       8.317  22.155  17.707  0.00  0.00    +0.016 A 
BRANCH  22  29
ATOM     28  C   UNL     1       8.789  22.644  20.463  0.00  0.00    +0.123 C 
ATOM     29  N   UNL     1       8.228  21.418  20.033  0.00  0.00    -0.303 N 
ATOM     30  C   UNL     1       8.842  20.246  20.523  0.00  0.00    +0.123 C 
ATOM     31  C   UNL     1      10.310  20.409  20.863  0.00  0.00    +0.164 C 
ATOM     32  O   UNL     1      10.940  21.511  20.221  0.00  0.00    -0.350 OA
ATOM     33  C   UNL     1      10.308  22.744  20.470  0.00  0.00    +0.164 C 
ENDBRANCH  22  29
ENDBRANCH   1  25
TORSDOF 3
ENDMDL
MODEL 6
REMARK VINA RESULT:      -7.5      1.509      2.225
REMARK  Name = 6GIN_IR2.pdb
REMARK  3 active torsions:
REMARK  status: ('A' for Active; 'I' for Inactive)
REMARK    1  A    between atoms: _6  and  _7
REMARK    2  A    between atoms: _10  and  _13
REMARK    3  A    between atoms: _19  and  _24
REMARK                            x       y       z     vdW  Elec       q    Type
REMARK                         _______ _______ _______ _____ _____    ______ ____
ROOT
ATOM      1  N   UNL     1       8.291  18.700  20.412  0.00  0.00    -0.257 N 
ATOM      2  C   UNL     1       9.531  18.990  20.963  0.00  0.00    +0.267 A 
ATOM      3  O   UNL     1      10.123  18.122  21.590  0.00  0.00    -0.267 OA
ATOM      4  C   UNL     1      10.073  20.379  20.749  0.00  0.00    +0.074 A 
ATOM      5  C   UNL     1      11.318  20.754  21.290  0.00  0.00    +0.006 A 
ATOM      6  C   UNL     1      11.821  22.050  21.107  0.00  0.00    +0.000 A 
ATOM      7  C   UNL     1      11.093  22.988  20.352  0.00  0.00    +0.002 A 
ATOM      8  C   UNL     1       9.866  22.643  19.807  0.00  0.00    +0.019 A 
ATOM      9  C   UNL     1       9.386  21.312  20.026  0.00  0.00    +0.088 A 
ATOM     10  N   UNL     1       8.123  20.990  19.466  0.00  0.00    -0.225 NA
ATOM     11  C   UNL     1       7.612  19.678  19.662  0.00  0.00    +0.185 A 
ENDROOT
BRANCH   6  12
ATOM     12  C   UNL     1      13.072  22.416  21.630  0.00  0.00    +0.003 A 
ATOM     13  C   UNL     1      14.291  22.404  20.829  0.00  0.00    +0.018 A 
ATOM     14  C   UNL     1      14.334  22.014  19.447  0.00  0.00    +0.001 A 
ATOM     15  C   UNL     1      15.515  21.977  18.679  0.00  0.00    +0.000 A 
ATOM     16  C   UNL     1      16.700  22.358  19.309  0.00  0.00    +0.002 A 
ATOM     17  C   UNL     1      16.678  22.777  20.642  0.00  0.00    +0.019 A 
ATOM     18  C   UNL     1      15.463  22.789  21.411  0.00  0.00    +0.081 A 
ATOM     19  N   UNL     1      15.472  23.197  22.746  0.00  0.00    -0.244 NA
ATOM     20  C   UNL     1      14.365  23.244  23.515  0.00  0.00    +0.099 A 
ATOM     21  C   UNL     1      13.136  22.851  22.944  0.00  0.00    +0.021 A 
ENDBRANCH   6  12
BRANCH   1  25
ATOM     22  C   UNL     1       6.608  14.864  20.542  0.00  0.00    +0.048 A 
ATOM     23  C   UNL     1       6.649  15.637  21.701  0.00  0.00    +0.016 A 
ATOM     24  C   UNL     1       7.195  16.914  21.658  0.00  0.00    +0.019 A 
ATOM     25  C   UNL     1       7.655  17.440  20.452  0.00  0.00    +0.068 A 
ATOM     26  C   UNL     1       7.659  16.656  19.310  0.00  0.00    +0.019 A 
ATOM     27  C   UNL     1       7.131  15.374  19.353  0.00  0.00    +0.016 A 
BRANCH  22  29
ATOM     28  C   UNL     1       5.500  13.048  19.349  0.00  0.00    +0.123 C 
ATOM     29  N   UNL     1       6.077  13.526  20.550  0.00  0.00    -0.303 N 
ATOM     30  C   UNL     1       5.462  13.101  21.747  0.00  0.00    +0.123 C 
ATOM     31  C   UNL     1       3.988  12.778  21.608  0.00  0.00    +0.164 C 
ATOM     32  O   UNL     1       3.361  13.379  20.482  0.00  0.00    -0.350 OA
ATOM     33  C   UNL     1       3.981  13.062  19.258  0.00  0.00    +0.164 C 
ENDBRANCH  22  29
ENDBRANCH   1  25
TORSDOF 3
ENDMDL
MODEL 7
REMARK VINA RESULT:      -7.3     10.360     11.989
REMARK  Name = 6GIN_IR2.pdb
REMARK  3 active torsions:
REMARK  status: ('A' for Active; 'I' for Inactive)
REMARK    1  A    between atoms: _6  and  _7
REMARK    2  A    between atoms: _10  and  _13
REMARK    3  A    between atoms: _19  and  _24
REMARK                            x       y       z     vdW  Elec       q    Type
REMARK                         _______ _______ _______ _____ _____    ______ ____
ROOT
ATOM      1  N   UNL     1       4.903  19.995  10.255  0.00  0.00    -0.257 N 
ATOM      2  C   UNL     1       5.521  19.824  11.485  0.00  0.00    +0.267 A 
ATOM      3  O   UNL     1       6.123  18.784  11.710  0.00  0.00    -0.267 OA
ATOM      4  C   UNL     1       5.406  20.951  12.477  0.00  0.00    +0.074 A 
ATOM      5  C   UNL     1       5.994  20.847  13.753  0.00  0.00    +0.006 A 
ATOM      6  C   UNL     1       5.877  21.887  14.687  0.00  0.00    +0.000 A 
ATOM      7  C   UNL     1       5.188  23.065  14.346  0.00  0.00    +0.002 A 
ATOM      8  C   UNL     1       4.603  23.194  13.096  0.00  0.00    +0.019 A 
ATOM      9  C   UNL     1       4.739  22.105  12.176  0.00  0.00    +0.088 A 
ATOM     10  N   UNL     1       4.121  22.259  10.909  0.00  0.00    -0.225 NA
ATOM     11  C   UNL     1       4.233  21.198   9.969  0.00  0.00    +0.185 A 
ENDROOT
BRANCH   6  12
ATOM     12  C   UNL     1       6.481  21.789  15.950  0.00  0.00    +0.003 A 
ATOM     13  C   UNL     1       7.728  22.471  16.278  0.00  0.00    +0.018 A 
ATOM     14  C   UNL     1       8.456  23.293  15.352  0.00  0.00    +0.001 A 
ATOM     15  C   UNL     1       9.674  23.932  15.659  0.00  0.00    +0.000 A 
ATOM     16  C   UNL     1      10.181  23.757  16.948  0.00  0.00    +0.002 A 
ATOM     17  C   UNL     1       9.472  22.993  17.878  0.00  0.00    +0.019 A 
ATOM     18  C   UNL     1       8.240  22.335  17.536  0.00  0.00    +0.081 A 
ATOM     19  N   UNL     1       7.560  21.564  18.480  0.00  0.00    -0.244 NA
ATOM     20  C   UNL     1       6.395  20.936  18.225  0.00  0.00    +0.099 A 
ATOM     21  C   UNL     1       5.838  21.055  16.934  0.00  0.00    +0.021 A 
ENDBRANCH   6  12
BRANCH   1  25
ATOM     22  C   UNL     1       4.883  17.384   6.977  0.00  0.00    +0.048 A 
ATOM     23  C   UNL     1       5.762  18.464   6.991  0.00  0.00    +0.016 A 
ATOM     24  C   UNL     1       5.780  19.324   8.081  0.00  0.00    +0.019 A 
ATOM     25  C   UNL     1       4.957  19.081   9.181  0.00  0.00    +0.068 A 
ATOM     26  C   UNL     1       4.048  18.036   9.148  0.00  0.00    +0.019 A 
ATOM     27  C   UNL     1       4.016  17.185   8.053  0.00  0.00    +0.016 A 
BRANCH  22  29
ATOM     28  C   UNL     1       6.006  16.252   5.132  0.00  0.00    +0.123 C 
ATOM     29  N   UNL     1       4.812  16.486   5.853  0.00  0.00    -0.303 N 
ATOM     30  C   UNL     1       3.623  16.523   5.093  0.00  0.00    +0.123 C 
ATOM     31  C   UNL     1       3.819  16.956   3.655  0.00  0.00    +0.164 C 
ATOM     32  O   UNL     1       5.017  17.688   3.422  0.00  0.00    -0.350 OA
ATOM     33  C   UNL     1       6.180  17.003   3.820  0.00  0.00    +0.164 C 
ENDBRANCH  22  29
ENDBRANCH   1  25
TORSDOF 3
ENDMDL
MODEL 8
REMARK VINA RESULT:      -7.3      7.662     10.004
REMARK  Name = 6GIN_IR2.pdb
REMARK  3 active torsions:
REMARK  status: ('A' for Active; 'I' for Inactive)
REMARK    1  A    between atoms: _6  and  _7
REMARK    2  A    between atoms: _10  and  _13
REMARK    3  A    between atoms: _19  and  _24
REMARK                            x       y       z     vdW  Elec       q    Type
REMARK                         _______ _______ _______ _____ _____    ______ ____
ROOT
ATOM      1  N   UNL     1       5.884  15.626  12.720  0.00  0.00    -0.257 N 
ATOM      2  C   UNL     1       6.318  16.724  13.445  0.00  0.00    +0.267 A 
ATOM      3  O   UNL     1       6.943  16.546  14.482  0.00  0.00    -0.267 OA
ATOM      4  C   UNL     1       5.984  18.088  12.899  0.00  0.00    +0.074 A 
ATOM      5  C   UNL     1       6.377  19.252  13.586  0.00  0.00    +0.006 A 
ATOM      6  C   UNL     1       6.055  20.525  13.091  0.00  0.00    +0.000 A 
ATOM      7  C   UNL     1       5.354  20.650  11.877  0.00  0.00    +0.002 A 
ATOM      8  C   UNL     1       4.959  19.519  11.180  0.00  0.00    +0.019 A 
ATOM      9  C   UNL     1       5.300  18.241  11.726  0.00  0.00    +0.088 A 
ATOM     10  N   UNL     1       4.873  17.102  10.998  0.00  0.00    -0.225 NA
ATOM     11  C   UNL     1       5.192  15.814  11.509  0.00  0.00    +0.185 A 
ENDROOT
BRANCH   6  12
ATOM     12  C   UNL     1       6.466  21.684  13.767  0.00  0.00    +0.003 A 
ATOM     13  C   UNL     1       6.271  21.865  15.201  0.00  0.00    +0.018 A 
ATOM     14  C   UNL     1       5.642  20.893  16.051  0.00  0.00    +0.001 A 
ATOM     15  C   UNL     1       5.430  21.078  17.432  0.00  0.00    +0.000 A 
ATOM     16  C   UNL     1       5.876  22.275  17.993  0.00  0.00    +0.002 A 
ATOM     17  C   UNL     1       6.525  23.220  17.194  0.00  0.00    +0.019 A 
ATOM     18  C   UNL     1       6.714  23.018  15.783  0.00  0.00    +0.081 A 
ATOM     19  N   UNL     1       7.350  23.986  15.005  0.00  0.00    -0.244 NA
ATOM     20  C   UNL     1       7.569  23.848  13.682  0.00  0.00    +0.099 A 
ATOM     21  C   UNL     1       7.124  22.670  13.048  0.00  0.00    +0.021 A 
ENDBRANCH   6  12
BRANCH   1  25
ATOM     22  C   UNL     1       6.529  11.563  13.526  0.00  0.00    +0.048 A 
ATOM     23  C   UNL     1       7.350  12.223  12.614  0.00  0.00    +0.016 A 
ATOM     24  C   UNL     1       7.147  13.572  12.354  0.00  0.00    +0.019 A 
ATOM     25  C   UNL     1       6.158  14.277  13.038  0.00  0.00    +0.068 A 
ATOM     26  C   UNL     1       5.309  13.613  13.909  0.00  0.00    +0.019 A 
ATOM     27  C   UNL     1       5.498  12.261  14.158  0.00  0.00    +0.016 A 
BRANCH  22  29
ATOM     28  C   UNL     1       6.299   9.249  12.790  0.00  0.00    +0.123 C 
ATOM     29  N   UNL     1       6.687  10.159  13.802  0.00  0.00    -0.303 N 
ATOM     30  C   UNL     1       6.449   9.750  15.132  0.00  0.00    +0.123 C 
ATOM     31  C   UNL     1       5.290   8.786  15.287  0.00  0.00    +0.164 C 
ATOM     32  O   UNL     1       4.361   8.811  14.211  0.00  0.00    -0.350 OA
ATOM     33  C   UNL     1       4.947   8.569  12.955  0.00  0.00    +0.164 C 
ENDBRANCH  22  29
ENDBRANCH   1  25
TORSDOF 3
ENDMDL
MODEL 9
REMARK VINA RESULT:      -7.2      7.618     10.017
REMARK  Name = 6GIN_IR2.pdb
REMARK  3 active torsions:
REMARK  status: ('A' for Active; 'I' for Inactive)
REMARK    1  A    between atoms: _6  and  _7
REMARK    2  A    between atoms: _10  and  _13
REMARK    3  A    between atoms: _19  and  _24
REMARK                            x       y       z     vdW  Elec       q    Type
REMARK                         _______ _______ _______ _____ _____    ______ ____
ROOT
ATOM      1  N   UNL     1       5.809  15.472  12.541  0.00  0.00    -0.257 N 
ATOM      2  C   UNL     1       6.255  16.569  13.261  0.00  0.00    +0.267 A 
ATOM      3  O   UNL     1       6.899  16.388  14.286  0.00  0.00    -0.267 OA
ATOM      4  C   UNL     1       5.909  17.933  12.726  0.00  0.00    +0.074 A 
ATOM      5  C   UNL     1       6.312  19.097  13.409  0.00  0.00    +0.006 A 
ATOM      6  C   UNL     1       5.980  20.370  12.924  0.00  0.00    +0.000 A 
ATOM      7  C   UNL     1       5.256  20.498  11.725  0.00  0.00    +0.002 A 
ATOM      8  C   UNL     1       4.849  19.369  11.031  0.00  0.00    +0.019 A 
ATOM      9  C   UNL     1       5.202  18.090  11.567  0.00  0.00    +0.088 A 
ATOM     10  N   UNL     1       4.763  16.952  10.843  0.00  0.00    -0.225 NA
ATOM     11  C   UNL     1       5.094  15.663  11.344  0.00  0.00    +0.185 A 
ENDROOT
BRANCH   6  12
ATOM     12  C   UNL     1       6.401  21.528  13.596  0.00  0.00    +0.003 A 
ATOM     13  C   UNL     1       6.252  21.696  15.037  0.00  0.00    +0.018 A 
ATOM     14  C   UNL     1       5.661  20.710  15.899  0.00  0.00    +0.001 A 
ATOM     15  C   UNL     1       5.492  20.882  17.288  0.00  0.00    +0.000 A 
ATOM     16  C   UNL     1       5.945  22.079  17.844  0.00  0.00    +0.002 A 
ATOM     17  C   UNL     1       6.559  23.037  17.032  0.00  0.00    +0.019 A 
ATOM     18  C   UNL     1       6.703  22.848  15.614  0.00  0.00    +0.081 A 
ATOM     19  N   UNL     1       7.304  23.828  14.824  0.00  0.00    -0.244 NA
ATOM     20  C   UNL     1       7.481  23.703  13.493  0.00  0.00    +0.099 A 
ATOM     21  C   UNL     1       7.026  22.525  12.865  0.00  0.00    +0.021 A 
ENDBRANCH   6  12
BRANCH   1  25
ATOM     22  C   UNL     1       6.804  11.541  13.602  0.00  0.00    +0.048 A 
ATOM     23  C   UNL     1       5.684  12.145  14.170  0.00  0.00    +0.016 A 
ATOM     24  C   UNL     1       5.345  13.443  13.812  0.00  0.00    +0.019 A 
ATOM     25  C   UNL     1       6.091  14.123  12.849  0.00  0.00    +0.068 A 
ATOM     26  C   UNL     1       7.232  13.543  12.319  0.00  0.00    +0.019 A 
ATOM     27  C   UNL     1       7.583  12.253  12.689  0.00  0.00    +0.016 A 
BRANCH  22  29
ATOM     28  C   UNL     1       6.663   9.669  15.158  0.00  0.00    +0.123 C 
ATOM     29  N   UNL     1       7.206  10.208  13.969  0.00  0.00    -0.303 N 
ATOM     30  C   UNL     1       8.541   9.853  13.677  0.00  0.00    +0.123 C 
ATOM     31  C   UNL     1       9.379   9.531  14.897  0.00  0.00    +0.164 C 
ATOM     32  O   UNL     1       8.876  10.073  16.112  0.00  0.00    -0.350 OA
ATOM     33  C   UNL     1       7.552   9.686  16.394  0.00  0.00    +0.164 C 
ENDBRANCH  22  29
ENDBRANCH   1  25
TORSDOF 3
ENDMDL
