MODEL 1
REMARK VINA RESULT:      -5.5      0.000      0.000
REMARK  Name = 4C02_TAK.pdb
REMARK  3 active torsions:
REMARK  status: ('A' for Active; 'I' for Inactive)
REMARK    1  A    between atoms: _1  and  _7
REMARK    2  A    between atoms: _12  and  _13
REMARK    3  A    between atoms: _18  and  _19
REMARK                            x       y       z     vdW  Elec       q    Type
REMARK                         _______ _______ _______ _____ _____    ______ ____
ROOT
ATOM      1  C   UNL     1       6.186  40.037  23.365  0.00  0.00    +0.038 A 
ATOM      2  C   UNL     1       6.642  40.781  22.263  0.00  0.00    +0.102 A 
ATOM      3  N   UNL     1       7.092  40.184  21.137  0.00  0.00    -0.225 NA
ATOM      4  C   UNL     1       7.144  38.797  21.048  0.00  0.00    +0.165 A 
ATOM      5  C   UNL     1       7.558  37.933  19.999  0.00  0.00    +0.057 A 
ATOM      6  C   UNL     1       7.369  36.657  20.524  0.00  0.00    +0.124 A 
ATOM      7  N   UNL     1       6.872  36.734  21.790  0.00  0.00    -0.162 NA
ATOM      8  N   UNL     1       6.748  38.075  22.071  0.00  0.00    -0.211 N 
ATOM      9  C   UNL     1       6.247  38.649  23.238  0.00  0.00    +0.104 A 
ENDROOT
BRANCH   1  13
ATOM     10  C   UNL     1       4.602  41.875  26.915  0.00  0.00    +0.139 A 
ATOM     11  C   UNL     1       3.891  41.874  25.745  0.00  0.00    +0.037 A 
ATOM     12  C   UNL     1       4.401  41.282  24.579  0.00  0.00    +0.003 A 
ATOM     13  C   UNL     1       5.661  40.674  24.568  0.00  0.00    +0.003 A 
ATOM     14  C   UNL     1       6.375  40.644  25.764  0.00  0.00    +0.003 A 
ATOM     15  C   UNL     1       5.865  41.236  26.917  0.00  0.00    +0.037 A 
BRANCH  10  16
ATOM     16  O   UNL     1       4.021  42.507  28.075  0.00  0.00    -0.471 OA
ATOM     17  C   UNL     1       2.878  41.931  28.660  0.00  0.00    +0.252 C 
ENDBRANCH  10  16
ENDBRANCH   1  13
BRANCH   5  18
ATOM     18  C   UNL     1       8.061  38.210  18.724  0.00  0.00    +0.008 A 
ATOM     19  C   UNL     1       9.208  38.944  18.492  0.00  0.00    +0.021 A 
ATOM     20  C   UNL     1       9.643  39.163  17.192  0.00  0.00    +0.099 A 
ATOM     21  N   UNL     1       8.967  38.649  16.158  0.00  0.00    -0.242 NA
ATOM     22  C   UNL     1       7.863  37.919  16.330  0.00  0.00    +0.099 A 
ATOM     23  C   UNL     1       7.405  37.692  17.617  0.00  0.00    +0.021 A 
ENDBRANCH   5  18
TORSDOF 3
ENDMDL
MODEL 2
REMARK VINA RESULT:      -5.5      8.605     11.070
REMARK  Name = 4C02_TAK.pdb
REMARK  3 active torsions:
REMARK  status: ('A' for Active; 'I' for Inactive)
REMARK    1  A    between atoms: _1  and  _7
REMARK    2  A    between atoms: _12  and  _13
REMARK    3  A    between atoms: _18  and  _19
REMARK                            x       y       z     vdW  Elec       q    Type
REMARK                         _______ _______ _______ _____ _____    ______ ____
ROOT
ATOM      1  C   UNL     1       8.649  35.967  28.605  0.00  0.00    +0.038 A 
ATOM      2  C   UNL     1       9.992  35.553  28.666  0.00  0.00    +0.102 A 
ATOM      3  N   UNL     1      10.418  34.648  29.574  0.00  0.00    -0.225 NA
ATOM      4  C   UNL     1       9.534  34.115  30.506  0.00  0.00    +0.165 A 
ATOM      5  C   UNL     1       9.717  33.162  31.544  0.00  0.00    +0.057 A 
ATOM      6  C   UNL     1       8.453  33.049  32.119  0.00  0.00    +0.124 A 
ATOM      7  N   UNL     1       7.567  33.863  31.481  0.00  0.00    -0.162 NA
ATOM      8  N   UNL     1       8.279  34.501  30.490  0.00  0.00    -0.211 N 
ATOM      9  C   UNL     1       7.791  35.407  29.551  0.00  0.00    +0.104 A 
ENDROOT
BRANCH   1  13
ATOM     10  C   UNL     1       7.205  38.719  25.635  0.00  0.00    +0.139 A 
ATOM     11  C   UNL     1       7.808  37.545  25.272  0.00  0.00    +0.037 A 
ATOM     12  C   UNL     1       8.288  36.642  26.234  0.00  0.00    +0.003 A 
ATOM     13  C   UNL     1       8.173  36.912  27.602  0.00  0.00    +0.003 A 
ATOM     14  C   UNL     1       7.531  38.091  27.976  0.00  0.00    +0.003 A 
ATOM     15  C   UNL     1       7.060  38.984  27.017  0.00  0.00    +0.037 A 
BRANCH  10  16
ATOM     16  O   UNL     1       6.740  39.605  24.595  0.00  0.00    -0.471 OA
ATOM     17  C   UNL     1       6.041  39.060  23.501  0.00  0.00    +0.252 C 
ENDBRANCH  10  16
ENDBRANCH   1  13
BRANCH   5  18
ATOM     18  C   UNL     1      10.855  32.468  31.965  0.00  0.00    +0.008 A 
ATOM     19  C   UNL     1      11.590  32.801  33.086  0.00  0.00    +0.021 A 
ATOM     20  C   UNL     1      12.703  32.050  33.438  0.00  0.00    +0.099 A 
ATOM     21  N   UNL     1      13.059  30.987  32.707  0.00  0.00    -0.242 NA
ATOM     22  C   UNL     1      12.373  30.613  31.625  0.00  0.00    +0.099 A 
ATOM     23  C   UNL     1      11.262  31.351  31.249  0.00  0.00    +0.021 A 
ENDBRANCH   5  18
TORSDOF 3
ENDMDL
MODEL 3
REMARK VINA RESULT:      -5.4      8.620     10.078
REMARK  Name = 4C02_TAK.pdb
REMARK  3 active torsions:
REMARK  status: ('A' for Active; 'I' for Inactive)
REMARK    1  A    between atoms: _1  and  _7
REMARK    2  A    between atoms: _12  and  _13
REMARK    3  A    between atoms: _18  and  _19
REMARK                            x       y       z     vdW  Elec       q    Type
REMARK                         _______ _______ _______ _____ _____    ______ ____
ROOT
ATOM      1  C   UNL     1      10.540  34.387  29.634  0.00  0.00    +0.038 A 
ATOM      2  C   UNL     1      11.144  34.772  28.425  0.00  0.00    +0.102 A 
ATOM      3  N   UNL     1      10.515  35.576  27.539  0.00  0.00    -0.225 NA
ATOM      4  C   UNL     1       9.224  36.027  27.789  0.00  0.00    +0.165 A 
ATOM      5  C   UNL     1       8.356  36.870  27.044  0.00  0.00    +0.057 A 
ATOM      6  C   UNL     1       7.208  36.944  27.829  0.00  0.00    +0.124 A 
ATOM      7  N   UNL     1       7.362  36.211  28.966  0.00  0.00    -0.162 NA
ATOM      8  N   UNL     1       8.624  35.664  28.899  0.00  0.00    -0.211 N 
ATOM      9  C   UNL     1       9.247  34.863  29.854  0.00  0.00    +0.104 A 
ENDROOT
BRANCH   1  13
ATOM     10  C   UNL     1      12.592  31.907  32.485  0.00  0.00    +0.139 A 
ATOM     11  C   UNL     1      11.687  31.371  31.609  0.00  0.00    +0.037 A 
ATOM     12  C   UNL     1      11.007  32.173  30.678  0.00  0.00    +0.003 A 
ATOM     13  C   UNL     1      11.226  33.553  30.614  0.00  0.00    +0.003 A 
ATOM     14  C   UNL     1      12.171  34.098  31.482  0.00  0.00    +0.003 A 
ATOM     15  C   UNL     1      12.839  33.298  32.405  0.00  0.00    +0.037 A 
BRANCH  10  16
ATOM     16  O   UNL     1      13.251  31.027  33.419  0.00  0.00    -0.471 OA
ATOM     17  C   UNL     1      12.929  31.126  34.787  0.00  0.00    +0.252 C 
ENDBRANCH  10  16
ENDBRANCH   1  13
BRANCH   5  18
ATOM     18  C   UNL     1       8.526  37.503  25.809  0.00  0.00    +0.008 A 
ATOM     19  C   UNL     1       9.679  38.166  25.436  0.00  0.00    +0.021 A 
ATOM     20  C   UNL     1       9.769  38.758  24.184  0.00  0.00    +0.099 A 
ATOM     21  N   UNL     1       8.747  38.673  23.322  0.00  0.00    -0.242 NA
ATOM     22  C   UNL     1       7.619  38.029  23.628  0.00  0.00    +0.099 A 
ATOM     23  C   UNL     1       7.504  37.435  24.874  0.00  0.00    +0.021 A 
ENDBRANCH   5  18
TORSDOF 3
ENDMDL
MODEL 4
REMARK VINA RESULT:      -5.3      7.071      9.758
REMARK  Name = 4C02_TAK.pdb
REMARK  3 active torsions:
REMARK  status: ('A' for Active; 'I' for Inactive)
REMARK    1  A    between atoms: _1  and  _7
REMARK    2  A    between atoms: _12  and  _13
REMARK    3  A    between atoms: _18  and  _19
REMARK                            x       y       z     vdW  Elec       q    Type
REMARK                         _______ _______ _______ _____ _____    ______ ____
ROOT
ATOM      1  C   UNL     1       8.135  37.083  26.957  0.00  0.00    +0.038 A 
ATOM      2  C   UNL     1       9.474  36.668  27.064  0.00  0.00    +0.102 A 
ATOM      3  N   UNL     1       9.900  35.888  28.081  0.00  0.00    -0.225 NA
ATOM      4  C   UNL     1       9.019  35.492  29.082  0.00  0.00    +0.165 A 
ATOM      5  C   UNL     1       9.202  34.683  30.236  0.00  0.00    +0.057 A 
ATOM      6  C   UNL     1       7.942  34.661  30.830  0.00  0.00    +0.124 A 
ATOM      7  N   UNL     1       7.058  35.391  30.095  0.00  0.00    -0.162 NA
ATOM      8  N   UNL     1       7.768  35.884  29.024  0.00  0.00    -0.211 N 
ATOM      9  C   UNL     1       7.279  36.662  27.976  0.00  0.00    +0.104 A 
ENDROOT
BRANCH   1  13
ATOM     10  C   UNL     1       6.689  39.434  23.661  0.00  0.00    +0.139 A 
ATOM     11  C   UNL     1       7.180  38.171  23.463  0.00  0.00    +0.037 A 
ATOM     12  C   UNL     1       7.660  37.398  24.532  0.00  0.00    +0.003 A 
ATOM     13  C   UNL     1       7.659  37.891  25.841  0.00  0.00    +0.003 A 
ATOM     14  C   UNL     1       7.130  39.163  26.051  0.00  0.00    +0.003 A 
ATOM     15  C   UNL     1       6.658  39.927  24.987  0.00  0.00    +0.037 A 
BRANCH  10  16
ATOM     16  O   UNL     1       6.217  40.177  22.518  0.00  0.00    -0.471 OA
ATOM     17  C   UNL     1       6.888  40.029  21.288  0.00  0.00    +0.252 C 
ENDBRANCH  10  16
ENDBRANCH   1  13
BRANCH   5  18
ATOM     18  C   UNL     1      10.337  34.040  30.737  0.00  0.00    +0.008 A 
ATOM     19  C   UNL     1      11.397  34.699  31.330  0.00  0.00    +0.021 A 
ATOM     20  C   UNL     1      12.483  33.980  31.811  0.00  0.00    +0.099 A 
ATOM     21  N   UNL     1      12.501  32.645  31.723  0.00  0.00    -0.242 NA
ATOM     22  C   UNL     1      11.495  31.960  31.175  0.00  0.00    +0.099 A 
ATOM     23  C   UNL     1      10.403  32.655  30.681  0.00  0.00    +0.021 A 
ENDBRANCH   5  18
TORSDOF 3
ENDMDL
MODEL 5
REMARK VINA RESULT:      -5.3     12.273     14.403
REMARK  Name = 4C02_TAK.pdb
REMARK  3 active torsions:
REMARK  status: ('A' for Active; 'I' for Inactive)
REMARK    1  A    between atoms: _1  and  _7
REMARK    2  A    between atoms: _12  and  _13
REMARK    3  A    between atoms: _18  and  _19
REMARK                            x       y       z     vdW  Elec       q    Type
REMARK                         _______ _______ _______ _____ _____    ______ ____
ROOT
ATOM      1  C   UNL     1       6.300  32.724  33.148  0.00  0.00    +0.038 A 
ATOM      2  C   UNL     1       5.965  34.048  32.817  0.00  0.00    +0.102 A 
ATOM      3  N   UNL     1       4.680  34.450  32.698  0.00  0.00    -0.225 NA
ATOM      4  C   UNL     1       3.639  33.543  32.872  0.00  0.00    +0.165 A 
ATOM      5  C   UNL     1       2.229  33.701  32.812  0.00  0.00    +0.057 A 
ATOM      6  C   UNL     1       1.739  32.425  33.080  0.00  0.00    +0.124 A 
ATOM      7  N   UNL     1       2.767  31.558  33.294  0.00  0.00    -0.162 NA
ATOM      8  N   UNL     1       3.922  32.293  33.157  0.00  0.00    -0.211 N 
ATOM      9  C   UNL     1       5.231  31.845  33.321  0.00  0.00    +0.104 A 
ENDROOT
BRANCH   1  13
ATOM     10  C   UNL     1      10.364  31.405  33.633  0.00  0.00    +0.139 A 
ATOM     11  C   UNL     1       9.364  30.909  34.425  0.00  0.00    +0.037 A 
ATOM     12  C   UNL     1       8.034  31.338  34.278  0.00  0.00    +0.003 A 
ATOM     13  C   UNL     1       7.683  32.293  33.319  0.00  0.00    +0.003 A 
ATOM     14  C   UNL     1       8.692  32.777  32.489  0.00  0.00    +0.003 A 
ATOM     15  C   UNL     1      10.009  32.351  32.641  0.00  0.00    +0.037 A 
BRANCH  10  16
ATOM     16  O   UNL     1      11.709  30.927  33.840  0.00  0.00    -0.471 OA
ATOM     17  C   UNL     1      12.577  30.841  32.735  0.00  0.00    +0.252 C 
ENDBRANCH  10  16
ENDBRANCH   1  13
BRANCH   5  18
ATOM     18  C   UNL     1       1.440  34.823  32.541  0.00  0.00    +0.008 A 
ATOM     19  C   UNL     1       0.824  35.585  33.515  0.00  0.00    +0.021 A 
ATOM     20  C   UNL     1       0.066  36.692  33.158  0.00  0.00    +0.099 A 
ATOM     21  N   UNL     1      -0.055  37.040  31.871  0.00  0.00    -0.242 NA
ATOM     22  C   UNL     1       0.534  36.349  30.894  0.00  0.00    +0.099 A 
ATOM     23  C   UNL     1       1.291  35.235  31.225  0.00  0.00    +0.021 A 
ENDBRANCH   5  18
TORSDOF 3
ENDMDL
MODEL 6
REMARK VINA RESULT:      -5.2      4.314      8.475
REMARK  Name = 4C02_TAK.pdb
REMARK  3 active torsions:
REMARK  status: ('A' for Active; 'I' for Inactive)
REMARK    1  A    between atoms: _1  and  _7
REMARK    2  A    between atoms: _12  and  _13
REMARK    3  A    between atoms: _18  and  _19
REMARK                            x       y       z     vdW  Elec       q    Type
REMARK                         _______ _______ _______ _____ _____    ______ ____
ROOT
ATOM      1  C   UNL     1       7.656  37.962  21.093  0.00  0.00    +0.038 A 
ATOM      2  C   UNL     1       6.777  37.352  22.005  0.00  0.00    +0.102 A 
ATOM      3  N   UNL     1       7.051  37.289  23.327  0.00  0.00    -0.225 NA
ATOM      4  C   UNL     1       8.242  37.807  23.824  0.00  0.00    +0.165 A 
ATOM      5  C   UNL     1       8.764  37.876  25.144  0.00  0.00    +0.057 A 
ATOM      6  C   UNL     1       9.993  38.511  24.984  0.00  0.00    +0.124 A 
ATOM      7  N   UNL     1      10.204  38.813  23.673  0.00  0.00    -0.162 NA
ATOM      8  N   UNL     1       9.095  38.361  22.994  0.00  0.00    -0.211 N 
ATOM      9  C   UNL     1       8.838  38.475  21.629  0.00  0.00    +0.104 A 
ENDROOT
BRANCH   1  13
ATOM     10  C   UNL     1       6.715  38.243  16.907  0.00  0.00    +0.139 A 
ATOM     11  C   UNL     1       7.419  37.177  17.401  0.00  0.00    +0.037 A 
ATOM     12  C   UNL     1       7.736  37.079  18.765  0.00  0.00    +0.003 A 
ATOM     13  C   UNL     1       7.349  38.071  19.672  0.00  0.00    +0.003 A 
ATOM     14  C   UNL     1       6.605  39.142  19.180  0.00  0.00    +0.003 A 
ATOM     15  C   UNL     1       6.296  39.236  17.825  0.00  0.00    +0.037 A 
BRANCH  10  16
ATOM     16  O   UNL     1       6.428  38.285  15.494  0.00  0.00    -0.471 OA
ATOM     17  C   UNL     1       6.294  39.538  14.866  0.00  0.00    +0.252 C 
ENDBRANCH  10  16
ENDBRANCH   1  13
BRANCH   5  18
ATOM     18  C   UNL     1       8.245  37.428  26.362  0.00  0.00    +0.008 A 
ATOM     19  C   UNL     1       8.575  36.219  26.942  0.00  0.00    +0.021 A 
ATOM     20  C   UNL     1       8.021  35.856  28.162  0.00  0.00    +0.099 A 
ATOM     21  N   UNL     1       7.178  36.683  28.793  0.00  0.00    -0.242 NA
ATOM     22  C   UNL     1       6.841  37.869  28.284  0.00  0.00    +0.099 A 
ATOM     23  C   UNL     1       7.376  38.251  27.064  0.00  0.00    +0.021 A 
ENDBRANCH   5  18
TORSDOF 3
ENDMDL
MODEL 7
REMARK VINA RESULT:      -5.1     14.558     17.519
REMARK  Name = 4C02_TAK.pdb
REMARK  3 active torsions:
REMARK  status: ('A' for Active; 'I' for Inactive)
REMARK    1  A    between atoms: _1  and  _7
REMARK    2  A    between atoms: _12  and  _13
REMARK    3  A    between atoms: _18  and  _19
REMARK                            x       y       z     vdW  Elec       q    Type
REMARK                         _______ _______ _______ _____ _____    ______ ____
ROOT
ATOM      1  C   UNL     1       1.808  28.505  34.566  0.00  0.00    +0.038 A 
ATOM      2  C   UNL     1       0.765  29.434  34.726  0.00  0.00    +0.102 A 
ATOM      3  N   UNL     1       0.888  30.720  34.329  0.00  0.00    -0.225 NA
ATOM      4  C   UNL     1       2.078  31.173  33.769  0.00  0.00    +0.165 A 
ATOM      5  C   UNL     1       2.462  32.447  33.271  0.00  0.00    +0.057 A 
ATOM      6  C   UNL     1       3.774  32.256  32.844  0.00  0.00    +0.124 A 
ATOM      7  N   UNL     1       4.160  30.968  33.059  0.00  0.00    -0.162 NA
ATOM      8  N   UNL     1       3.079  30.335  33.630  0.00  0.00    -0.211 N 
ATOM      9  C   UNL     1       2.984  28.994  33.996  0.00  0.00    +0.104 A 
ENDROOT
BRANCH   1  13
ATOM     10  C   UNL     1       1.383  24.396  35.759  0.00  0.00    +0.139 A 
ATOM     11  C   UNL     1       2.397  25.172  36.254  0.00  0.00    +0.037 A 
ATOM     12  C   UNL     1       2.548  26.513  35.866  0.00  0.00    +0.003 A 
ATOM     13  C   UNL     1       1.669  27.106  34.955  0.00  0.00    +0.003 A 
ATOM     14  C   UNL     1       0.616  26.330  34.473  0.00  0.00    +0.003 A 
ATOM     15  C   UNL     1       0.473  25.000  34.859  0.00  0.00    +0.037 A 
BRANCH  10  16
ATOM     16  O   UNL     1       1.289  23.024  36.195  0.00  0.00    -0.471 OA
ATOM     17  C   UNL     1       2.208  22.086  35.685  0.00  0.00    +0.252 C 
ENDBRANCH  10  16
ENDBRANCH   1  13
BRANCH   5  18
ATOM     18  C   UNL     1       1.763  33.655  33.200  0.00  0.00    +0.008 A 
ATOM     19  C   UNL     1       1.068  34.206  34.260  0.00  0.00    +0.021 A 
ATOM     20  C   UNL     1       0.409  35.418  34.106  0.00  0.00    +0.099 A 
ATOM     21  N   UNL     1       0.459  36.070  32.938  0.00  0.00    -0.242 NA
ATOM     22  C   UNL     1       1.130  35.590  31.890  0.00  0.00    +0.099 A 
ATOM     23  C   UNL     1       1.791  34.378  32.017  0.00  0.00    +0.021 A 
ENDBRANCH   5  18
TORSDOF 3
ENDMDL
MODEL 8
REMARK VINA RESULT:      -5.0      2.162      3.291
REMARK  Name = 4C02_TAK.pdb
REMARK  3 active torsions:
REMARK  status: ('A' for Active; 'I' for Inactive)
REMARK    1  A    between atoms: _1  and  _7
REMARK    2  A    between atoms: _12  and  _13
REMARK    3  A    between atoms: _18  and  _19
REMARK                            x       y       z     vdW  Elec       q    Type
REMARK                         _______ _______ _______ _____ _____    ______ ____
ROOT
ATOM      1  C   UNL     1       5.508  41.139  25.210  0.00  0.00    +0.038 A 
ATOM      2  C   UNL     1       5.424  40.995  23.814  0.00  0.00    +0.102 A 
ATOM      3  N   UNL     1       6.161  40.080  23.146  0.00  0.00    -0.225 NA
ATOM      4  C   UNL     1       7.058  39.265  23.828  0.00  0.00    +0.165 A 
ATOM      5  C   UNL     1       7.931  38.238  23.378  0.00  0.00    +0.057 A 
ATOM      6  C   UNL     1       8.561  37.803  24.542  0.00  0.00    +0.124 A 
ATOM      7  N   UNL     1       8.106  38.503  25.617  0.00  0.00    -0.162 NA
ATOM      8  N   UNL     1       7.177  39.393  25.129  0.00  0.00    -0.211 N 
ATOM      9  C   UNL     1       6.414  40.301  25.860  0.00  0.00    +0.104 A 
ENDROOT
BRANCH   1  13
ATOM     10  C   UNL     1       3.043  43.942  27.343  0.00  0.00    +0.139 A 
ATOM     11  C   UNL     1       3.344  44.134  26.022  0.00  0.00    +0.037 A 
ATOM     12  C   UNL     1       4.153  43.227  25.318  0.00  0.00    +0.003 A 
ATOM     13  C   UNL     1       4.686  42.095  25.943  0.00  0.00    +0.003 A 
ATOM     14  C   UNL     1       4.356  41.880  27.279  0.00  0.00    +0.003 A 
ATOM     15  C   UNL     1       3.556  42.784  27.973  0.00  0.00    +0.037 A 
BRANCH  10  16
ATOM     16  O   UNL     1       2.212  44.916  28.009  0.00  0.00    -0.471 OA
ATOM     17  C   UNL     1       1.957  44.763  29.385  0.00  0.00    +0.252 C 
ENDBRANCH  10  16
ENDBRANCH   1  13
BRANCH   5  18
ATOM     18  C   UNL     1       8.173  37.733  22.097  0.00  0.00    +0.008 A 
ATOM     19  C   UNL     1       7.220  37.091  21.330  0.00  0.00    +0.021 A 
ATOM     20  C   UNL     1       7.543  36.630  20.061  0.00  0.00    +0.099 A 
ATOM     21  N   UNL     1       8.772  36.821  19.565  0.00  0.00    -0.242 NA
ATOM     22  C   UNL     1       9.722  37.450  20.259  0.00  0.00    +0.099 A 
ATOM     23  C   UNL     1       9.427  37.914  21.531  0.00  0.00    +0.021 A 
ENDBRANCH   5  18
TORSDOF 3
ENDMDL
MODEL 9
REMARK VINA RESULT:      -4.9      5.180      7.475
REMARK  Name = 4C02_TAK.pdb
REMARK  3 active torsions:
REMARK  status: ('A' for Active; 'I' for Inactive)
REMARK    1  A    between atoms: _1  and  _7
REMARK    2  A    between atoms: _12  and  _13
REMARK    3  A    between atoms: _18  and  _19
REMARK                            x       y       z     vdW  Elec       q    Type
REMARK                         _______ _______ _______ _____ _____    ______ ____
ROOT
ATOM      1  C   UNL     1       8.080  37.570  27.123  0.00  0.00    +0.038 A 
ATOM      2  C   UNL     1       7.727  38.872  27.518  0.00  0.00    +0.102 A 
ATOM      3  N   UNL     1       7.112  39.731  26.674  0.00  0.00    -0.225 NA
ATOM      4  C   UNL     1       6.836  39.355  25.364  0.00  0.00    +0.165 A 
ATOM      5  C   UNL     1       6.206  40.047  24.295  0.00  0.00    +0.057 A 
ATOM      6  C   UNL     1       6.229  39.132  23.246  0.00  0.00    +0.124 A 
ATOM      7  N   UNL     1       6.819  37.971  23.642  0.00  0.00    -0.162 NA
ATOM      8  N   UNL     1       7.177  38.154  24.959  0.00  0.00    -0.211 N 
ATOM      9  C   UNL     1       7.782  37.226  25.804  0.00  0.00    +0.104 A 
ENDROOT
BRANCH   1  13
ATOM     10  C   UNL     1       9.904  34.740  29.797  0.00  0.00    +0.139 A 
ATOM     11  C   UNL     1       8.548  34.928  29.789  0.00  0.00    +0.037 A 
ATOM     12  C   UNL     1       7.943  35.854  28.924  0.00  0.00    +0.003 A 
ATOM     13  C   UNL     1       8.705  36.624  28.039  0.00  0.00    +0.003 A 
ATOM     14  C   UNL     1      10.083  36.412  28.021  0.00  0.00    +0.003 A 
ATOM     15  C   UNL     1      10.677  35.495  28.884  0.00  0.00    +0.037 A 
BRANCH  10  16
ATOM     16  O   UNL     1      10.461  33.777  30.716  0.00  0.00    -0.471 OA
ATOM     17  C   UNL     1      11.148  32.663  30.197  0.00  0.00    +0.252 C 
ENDBRANCH  10  16
ENDBRANCH   1  13
BRANCH   5  18
ATOM     18  C   UNL     1       5.676  41.339  24.223  0.00  0.00    +0.008 A 
ATOM     19  C   UNL     1       6.300  42.393  23.582  0.00  0.00    +0.021 A 
ATOM     20  C   UNL     1       5.697  43.643  23.549  0.00  0.00    +0.099 A 
ATOM     21  N   UNL     1       4.500  43.831  24.118  0.00  0.00    -0.242 NA
ATOM     22  C   UNL     1       3.849  42.842  24.734  0.00  0.00    +0.099 A 
ATOM     23  C   UNL     1       4.433  41.587  24.787  0.00  0.00    +0.021 A 
ENDBRANCH   5  18
TORSDOF 3
ENDMDL
