MODEL 1
REMARK VINA RESULT:      -6.1      0.000      0.000
REMARK  Name = 5S88_LU8.pdb
REMARK  6 active torsions:
REMARK  status: ('A' for Active; 'I' for Inactive)
REMARK    1  A    between atoms: _2  and  _3
REMARK    2  A    between atoms: _5  and  _6
REMARK    3  A    between atoms: _10  and  _11
REMARK    4  A    between atoms: _14  and  _15
REMARK    5  A    between atoms: _27  and  _28
REMARK    6  A    between atoms: _30  and  _31
REMARK                            x       y       z     vdW  Elec       q    Type
REMARK                         _______ _______ _______ _____ _____    ______ ____
ROOT
ATOM      1  C   UNL     1       7.973  37.685  27.012  0.00  0.00    +0.015 A 
ATOM      2  C   UNL     1       8.474  36.589  27.698  0.00  0.00    -0.019 A 
ATOM      3  C   UNL     1       9.270  35.561  26.951  0.00  0.00    +0.031 C 
ATOM      4  C   UNL     1       8.290  36.436  29.103  0.00  0.00    +0.015 A 
ATOM      5  C   UNL     1       7.643  37.483  29.700  0.00  0.00    +0.099 A 
ATOM      6  N   UNL     1       7.186  38.527  29.073  0.00  0.00    -0.242 NA
ATOM      7  C   UNL     1       7.326  38.656  27.747  0.00  0.00    +0.099 A 
ENDROOT
BRANCH   1  12
ATOM      8  C   UNL     1       7.420  37.760  23.264  0.00  0.00    +0.175 A 
ATOM      9  C   UNL     1       8.600  38.330  22.829  0.00  0.00    +0.206 A 
ATOM     10  C   UNL     1       9.588  38.622  23.742  0.00  0.00    +0.175 A 
ATOM     11  C   UNL     1       9.375  38.386  25.084  0.00  0.00    +0.040 A 
ATOM     12  C   UNL     1       8.169  37.839  25.545  0.00  0.00    +0.007 A 
ATOM     13  C   UNL     1       7.198  37.497  24.605  0.00  0.00    +0.040 A 
BRANCH   8  15
ATOM     14  C   UNL     1       5.202  37.996  22.425  0.00  0.00    +0.253 C 
ATOM     15  O   UNL     1       6.536  37.455  22.279  0.00  0.00    -0.468 OA
ENDBRANCH   8  15
BRANCH   9  16
ATOM     16  O   UNL     1       8.794  38.615  21.499  0.00  0.00    -0.465 OA
ATOM     17  C   UNL     1       9.390  37.648  20.703  0.00  0.00    +0.253 C 
ENDBRANCH   9  16
BRANCH  10  18
ATOM     18  O   UNL     1      10.746  39.184  23.231  0.00  0.00    -0.468 OA
ATOM     19  C   UNL     1      12.033  38.626  23.517  0.00  0.00    +0.253 C 
ENDBRANCH  10  18
ENDBRANCH   1  12
BRANCH   4  20
ATOM     20  C   UNL     1       8.775  35.303  29.903  0.00  0.00    +0.001 A 
ATOM     21  C   UNL     1      10.188  35.107  30.114  0.00  0.00    -0.000 A 
ATOM     22  C   UNL     1      10.686  34.054  30.840  0.00  0.00    -0.004 A 
ATOM     23  C   UNL     1       9.816  33.089  31.374  0.00  0.00    -0.022 A 
ATOM     24  C   UNL     1       8.433  33.296  31.177  0.00  0.00    -0.004 A 
ATOM     25  C   UNL     1       7.933  34.311  30.445  0.00  0.00    -0.000 A 
BRANCH  23  26
ATOM     26  C   UNL     1      10.433  32.029  32.214  0.00  0.00    +0.025 C 
ATOM     27  C   UNL     1      10.367  32.271  33.693  0.00  0.00    +0.022 C 
ATOM     28  C   UNL     1      10.892  31.002  34.358  0.00  0.00    +0.072 C 
ATOM     29  N   UNL     1      12.352  30.827  34.110  0.00  0.00    -0.271 NA
ATOM     30  C   UNL     1      13.144  31.896  34.770  0.00  0.00    +0.090 C 
ATOM     31  C   UNL     1      12.635  30.716  32.658  0.00  0.00    +0.072 C 
ATOM     32  C   UNL     1      11.872  31.720  31.771  0.00  0.00    +0.022 C 
ENDBRANCH  23  26
ENDBRANCH   4  20
TORSDOF 6
ENDMDL
MODEL 2
REMARK VINA RESULT:      -6.0      4.295      6.050
REMARK  Name = 5S88_LU8.pdb
REMARK  6 active torsions:
REMARK  status: ('A' for Active; 'I' for Inactive)
REMARK    1  A    between atoms: _2  and  _3
REMARK    2  A    between atoms: _5  and  _6
REMARK    3  A    between atoms: _10  and  _11
REMARK    4  A    between atoms: _14  and  _15
REMARK    5  A    between atoms: _27  and  _28
REMARK    6  A    between atoms: _30  and  _31
REMARK                            x       y       z     vdW  Elec       q    Type
REMARK                         _______ _______ _______ _____ _____    ______ ____
ROOT
ATOM      1  C   UNL     1       6.098  40.111  24.136  0.00  0.00    +0.015 A 
ATOM      2  C   UNL     1       6.746  39.542  25.221  0.00  0.00    -0.019 A 
ATOM      3  C   UNL     1       7.027  40.385  26.429  0.00  0.00    +0.031 C 
ATOM      4  C   UNL     1       7.115  38.165  25.236  0.00  0.00    +0.015 A 
ATOM      5  C   UNL     1       6.718  37.467  24.130  0.00  0.00    +0.099 A 
ATOM      6  N   UNL     1       6.089  37.983  23.114  0.00  0.00    -0.242 NA
ATOM      7  C   UNL     1       5.774  39.283  23.081  0.00  0.00    +0.099 A 
ENDROOT
BRANCH   1  12
ATOM      8  C   UNL     1       5.903  43.810  23.340  0.00  0.00    +0.175 A 
ATOM      9  C   UNL     1       4.794  44.185  24.070  0.00  0.00    +0.206 A 
ATOM     10  C   UNL     1       4.160  43.256  24.865  0.00  0.00    +0.175 A 
ATOM     11  C   UNL     1       4.609  41.953  24.890  0.00  0.00    +0.040 A 
ATOM     12  C   UNL     1       5.714  41.548  24.126  0.00  0.00    +0.007 A 
ATOM     13  C   UNL     1       6.380  42.510  23.368  0.00  0.00    +0.040 A 
BRANCH   8  15
ATOM     14  C   UNL     1       7.410  44.413  21.594  0.00  0.00    +0.253 C 
ATOM     15  O   UNL     1       6.490  44.813  22.637  0.00  0.00    -0.468 OA
ENDBRANCH   8  15
BRANCH   9  16
ATOM     16  O   UNL     1       4.312  45.471  24.006  0.00  0.00    -0.465 OA
ATOM     17  C   UNL     1       3.338  45.757  23.061  0.00  0.00    +0.253 C 
ENDBRANCH   9  16
BRANCH  10  18
ATOM     18  O   UNL     1       3.060  43.708  25.575  0.00  0.00    -0.468 OA
ATOM     19  C   UNL     1       3.130  43.941  26.986  0.00  0.00    +0.253 C 
ENDBRANCH  10  18
ENDBRANCH   1  12
BRANCH   4  20
ATOM     20  C   UNL     1       7.815  37.487  26.336  0.00  0.00    +0.001 A 
ATOM     21  C   UNL     1       7.082  36.988  27.473  0.00  0.00    -0.000 A 
ATOM     22  C   UNL     1       7.696  36.363  28.529  0.00  0.00    -0.004 A 
ATOM     23  C   UNL     1       9.094  36.229  28.556  0.00  0.00    -0.022 A 
ATOM     24  C   UNL     1       9.804  36.706  27.433  0.00  0.00    -0.004 A 
ATOM     25  C   UNL     1       9.216  37.344  26.401  0.00  0.00    -0.000 A 
BRANCH  23  26
ATOM     26  C   UNL     1       9.667  35.469  29.697  0.00  0.00    +0.025 C 
ATOM     27  C   UNL     1      11.065  34.965  29.488  0.00  0.00    +0.022 C 
ATOM     28  C   UNL     1      11.513  34.377  30.823  0.00  0.00    +0.072 C 
ATOM     29  N   UNL     1      10.753  33.135  31.148  0.00  0.00    -0.271 NA
ATOM     30  C   UNL     1      11.062  32.046  30.188  0.00  0.00    +0.090 C 
ATOM     31  C   UNL     1       9.299  33.413  31.251  0.00  0.00    +0.072 C 
ATOM     32  C   UNL     1       8.735  34.332  30.148  0.00  0.00    +0.022 C 
ENDBRANCH  23  26
ENDBRANCH   4  20
TORSDOF 6
ENDMDL
MODEL 3
REMARK VINA RESULT:      -6.0      0.382      2.289
REMARK  Name = 5S88_LU8.pdb
REMARK  6 active torsions:
REMARK  status: ('A' for Active; 'I' for Inactive)
REMARK    1  A    between atoms: _2  and  _3
REMARK    2  A    between atoms: _5  and  _6
REMARK    3  A    between atoms: _10  and  _11
REMARK    4  A    between atoms: _14  and  _15
REMARK    5  A    between atoms: _27  and  _28
REMARK    6  A    between atoms: _30  and  _31
REMARK                            x       y       z     vdW  Elec       q    Type
REMARK                         _______ _______ _______ _____ _____    ______ ____
ROOT
ATOM      1  C   UNL     1       7.912  37.699  27.043  0.00  0.00    +0.015 A 
ATOM      2  C   UNL     1       8.458  36.617  27.717  0.00  0.00    -0.019 A 
ATOM      3  C   UNL     1       9.380  35.689  26.985  0.00  0.00    +0.031 C 
ATOM      4  C   UNL     1       8.200  36.389  29.101  0.00  0.00    +0.015 A 
ATOM      5  C   UNL     1       7.433  37.354  29.694  0.00  0.00    +0.099 A 
ATOM      6  N   UNL     1       6.933  38.385  29.079  0.00  0.00    -0.242 NA
ATOM      7  C   UNL     1       7.143  38.583  27.771  0.00  0.00    +0.099 A 
ENDROOT
BRANCH   1  12
ATOM      8  C   UNL     1       9.603  38.545  23.760  0.00  0.00    +0.175 A 
ATOM      9  C   UNL     1       8.632  38.174  22.852  0.00  0.00    +0.206 A 
ATOM     10  C   UNL     1       7.416  37.717  23.310  0.00  0.00    +0.175 A 
ATOM     11  C   UNL     1       7.195  37.592  24.665  0.00  0.00    +0.040 A 
ATOM     12  C   UNL     1       8.185  37.933  25.599  0.00  0.00    +0.007 A 
ATOM     13  C   UNL     1       9.391  38.446  25.124  0.00  0.00    +0.040 A 
BRANCH   8  15
ATOM     14  C   UNL     1      11.982  38.660  23.850  0.00  0.00    +0.253 C 
ATOM     15  O   UNL     1      10.742  39.038  23.207  0.00  0.00    -0.468 OA
ENDBRANCH   8  15
BRANCH   9  16
ATOM     16  O   UNL     1       8.868  38.247  21.501  0.00  0.00    -0.465 OA
ATOM     17  C   UNL     1       8.504  39.408  20.835  0.00  0.00    +0.253 C 
ENDBRANCH   9  16
BRANCH  10  18
ATOM     18  O   UNL     1       6.489  37.371  22.341  0.00  0.00    -0.468 OA
ATOM     19  C   UNL     1       5.202  37.997  22.286  0.00  0.00    +0.253 C 
ENDBRANCH  10  18
ENDBRANCH   1  12
BRANCH   4  20
ATOM     20  C   UNL     1       8.725  35.264  29.886  0.00  0.00    +0.001 A 
ATOM     21  C   UNL     1      10.147  35.063  30.017  0.00  0.00    -0.000 A 
ATOM     22  C   UNL     1      10.681  34.017  30.727  0.00  0.00    -0.004 A 
ATOM     23  C   UNL     1       9.839  33.063  31.323  0.00  0.00    -0.022 A 
ATOM     24  C   UNL     1       8.449  33.275  31.204  0.00  0.00    -0.004 A 
ATOM     25  C   UNL     1       7.911  34.283  30.489  0.00  0.00    -0.000 A 
BRANCH  23  26
ATOM     26  C   UNL     1      10.499  32.011  32.140  0.00  0.00    +0.025 C 
ATOM     27  C   UNL     1      10.366  32.182  33.624  0.00  0.00    +0.022 C 
ATOM     28  C   UNL     1      10.955  30.923  34.254  0.00  0.00    +0.072 C 
ATOM     29  N   UNL     1      12.431  30.858  34.053  0.00  0.00    -0.271 NA
ATOM     30  C   UNL     1      13.124  31.947  34.786  0.00  0.00    +0.090 C 
ATOM     31  C   UNL     1      12.770  30.831  32.609  0.00  0.00    +0.072 C 
ATOM     32  C   UNL     1      11.970  31.820  31.737  0.00  0.00    +0.022 C 
ENDBRANCH  23  26
ENDBRANCH   4  20
TORSDOF 6
ENDMDL
MODEL 4
REMARK VINA RESULT:      -6.0      4.281      5.810
REMARK  Name = 5S88_LU8.pdb
REMARK  6 active torsions:
REMARK  status: ('A' for Active; 'I' for Inactive)
REMARK    1  A    between atoms: _2  and  _3
REMARK    2  A    between atoms: _5  and  _6
REMARK    3  A    between atoms: _10  and  _11
REMARK    4  A    between atoms: _14  and  _15
REMARK    5  A    between atoms: _27  and  _28
REMARK    6  A    between atoms: _30  and  _31
REMARK                            x       y       z     vdW  Elec       q    Type
REMARK                         _______ _______ _______ _____ _____    ______ ____
ROOT
ATOM      1  C   UNL     1       6.082  40.050  24.110  0.00  0.00    +0.015 A 
ATOM      2  C   UNL     1       6.716  39.493  25.210  0.00  0.00    -0.019 A 
ATOM      3  C   UNL     1       6.862  40.309  26.460  0.00  0.00    +0.031 C 
ATOM      4  C   UNL     1       7.196  38.151  25.198  0.00  0.00    +0.015 A 
ATOM      5  C   UNL     1       6.917  37.466  24.048  0.00  0.00    +0.099 A 
ATOM      6  N   UNL     1       6.303  37.969  23.017  0.00  0.00    -0.242 NA
ATOM      7  C   UNL     1       5.883  39.240  23.011  0.00  0.00    +0.099 A 
ENDROOT
BRANCH   1  12
ATOM      8  C   UNL     1       4.132  43.198  24.912  0.00  0.00    +0.175 A 
ATOM      9  C   UNL     1       4.843  44.144  24.202  0.00  0.00    +0.206 A 
ATOM     10  C   UNL     1       5.903  43.747  23.417  0.00  0.00    +0.175 A 
ATOM     11  C   UNL     1       6.273  42.419  23.384  0.00  0.00    +0.040 A 
ATOM     12  C   UNL     1       5.582  41.451  24.128  0.00  0.00    +0.007 A 
ATOM     13  C   UNL     1       4.477  41.857  24.874  0.00  0.00    +0.040 A 
BRANCH   8  15
ATOM     14  C   UNL     1       3.197  43.700  27.046  0.00  0.00    +0.253 C 
ATOM     15  O   UNL     1       3.070  43.684  25.605  0.00  0.00    -0.468 OA
ENDBRANCH   8  15
BRANCH   9  16
ATOM     16  O   UNL     1       4.509  45.475  24.275  0.00  0.00    -0.465 OA
ATOM     17  C   UNL     1       3.608  45.975  23.347  0.00  0.00    +0.253 C 
ENDBRANCH   9  16
BRANCH  10  18
ATOM     18  O   UNL     1       6.562  44.750  22.728  0.00  0.00    -0.468 OA
ATOM     19  C   UNL     1       7.417  44.453  21.618  0.00  0.00    +0.253 C 
ENDBRANCH  10  18
ENDBRANCH   1  12
BRANCH   4  20
ATOM     20  C   UNL     1       7.890  37.489  26.312  0.00  0.00    +0.001 A 
ATOM     21  C   UNL     1       7.143  36.925  27.408  0.00  0.00    -0.000 A 
ATOM     22  C   UNL     1       7.750  36.313  28.476  0.00  0.00    -0.004 A 
ATOM     23  C   UNL     1       9.152  36.257  28.556  0.00  0.00    -0.022 A 
ATOM     24  C   UNL     1       9.876  36.798  27.472  0.00  0.00    -0.004 A 
ATOM     25  C   UNL     1       9.293  37.424  26.430  0.00  0.00    -0.000 A 
BRANCH  23  26
ATOM     26  C   UNL     1       9.723  35.506  29.704  0.00  0.00    +0.025 C 
ATOM     27  C   UNL     1      11.108  34.972  29.489  0.00  0.00    +0.022 C 
ATOM     28  C   UNL     1      11.559  34.398  30.829  0.00  0.00    +0.072 C 
ATOM     29  N   UNL     1      10.779  33.177  31.184  0.00  0.00    -0.271 NA
ATOM     30  C   UNL     1      11.058  32.066  30.239  0.00  0.00    +0.090 C 
ATOM     31  C   UNL     1       9.332  33.485  31.297  0.00  0.00    +0.072 C 
ATOM     32  C   UNL     1       8.774  34.395  30.184  0.00  0.00    +0.022 C 
ENDBRANCH  23  26
ENDBRANCH   4  20
TORSDOF 6
ENDMDL
MODEL 5
REMARK VINA RESULT:      -5.7      2.203      3.244
REMARK  Name = 5S88_LU8.pdb
REMARK  6 active torsions:
REMARK  status: ('A' for Active; 'I' for Inactive)
REMARK    1  A    between atoms: _2  and  _3
REMARK    2  A    between atoms: _5  and  _6
REMARK    3  A    between atoms: _10  and  _11
REMARK    4  A    between atoms: _14  and  _15
REMARK    5  A    between atoms: _27  and  _28
REMARK    6  A    between atoms: _30  and  _31
REMARK                            x       y       z     vdW  Elec       q    Type
REMARK                         _______ _______ _______ _____ _____    ______ ____
ROOT
ATOM      1  C   UNL     1       9.895  37.273  26.892  0.00  0.00    +0.015 A 
ATOM      2  C   UNL     1       9.710  36.265  27.825  0.00  0.00    -0.019 A 
ATOM      3  C   UNL     1       8.321  35.774  28.107  0.00  0.00    +0.031 C 
ATOM      4  C   UNL     1      10.811  35.652  28.494  0.00  0.00    +0.015 A 
ATOM      5  C   UNL     1      12.035  36.102  28.084  0.00  0.00    +0.099 A 
ATOM      6  N   UNL     1      12.223  37.032  27.194  0.00  0.00    -0.242 NA
ATOM      7  C   UNL     1      11.191  37.634  26.591  0.00  0.00    +0.099 A 
ENDROOT
BRANCH   1  12
ATOM      8  C   UNL     1       7.066  39.610  25.945  0.00  0.00    +0.175 A 
ATOM      9  C   UNL     1       6.699  39.104  24.714  0.00  0.00    +0.206 A 
ATOM     10  C   UNL     1       7.322  37.974  24.233  0.00  0.00    +0.175 A 
ATOM     11  C   UNL     1       8.335  37.386  24.960  0.00  0.00    +0.040 A 
ATOM     12  C   UNL     1       8.743  37.908  26.196  0.00  0.00    +0.007 A 
ATOM     13  C   UNL     1       8.067  39.019  26.698  0.00  0.00    +0.040 A 
BRANCH   8  15
ATOM     14  C   UNL     1       7.107  41.888  26.643  0.00  0.00    +0.253 C 
ATOM     15  O   UNL     1       6.350  40.689  26.355  0.00  0.00    -0.468 OA
ENDBRANCH   8  15
BRANCH   9  16
ATOM     16  O   UNL     1       5.727  39.720  23.963  0.00  0.00    -0.465 OA
ATOM     17  C   UNL     1       6.102  40.779  23.150  0.00  0.00    +0.253 C 
ENDBRANCH   9  16
BRANCH  10  18
ATOM     18  O   UNL     1       6.895  37.521  22.996  0.00  0.00    -0.468 OA
ATOM     19  C   UNL     1       7.728  37.628  21.836  0.00  0.00    +0.253 C 
ENDBRANCH  10  18
ENDBRANCH   1  12
BRANCH   4  20
ATOM     20  C   UNL     1      10.704  34.590  29.504  0.00  0.00    +0.001 A 
ATOM     21  C   UNL     1      10.050  34.842  30.764  0.00  0.00    -0.000 A 
ATOM     22  C   UNL     1       9.941  33.885  31.742  0.00  0.00    -0.004 A 
ATOM     23  C   UNL     1      10.517  32.617  31.558  0.00  0.00    -0.022 A 
ATOM     24  C   UNL     1      11.142  32.373  30.316  0.00  0.00    -0.004 A 
ATOM     25  C   UNL     1      11.278  33.311  29.357  0.00  0.00    -0.000 A 
BRANCH  23  26
ATOM     26  C   UNL     1      10.282  31.618  32.632  0.00  0.00    +0.025 C 
ATOM     27  C   UNL     1       9.006  31.797  33.400  0.00  0.00    +0.022 C 
ATOM     28  C   UNL     1       8.883  30.584  34.318  0.00  0.00    +0.072 C 
ATOM     29  N   UNL     1       9.925  30.608  35.386  0.00  0.00    -0.271 NA
ATOM     30  C   UNL     1       9.718  31.747  36.316  0.00  0.00    +0.090 C 
ATOM     31  C   UNL     1      11.288  30.586  34.800  0.00  0.00    +0.072 C 
ATOM     32  C   UNL     1      11.486  31.513  33.583  0.00  0.00    +0.022 C 
ENDBRANCH  23  26
ENDBRANCH   4  20
TORSDOF 6
ENDMDL
MODEL 6
REMARK VINA RESULT:      -5.7      4.478     10.485
REMARK  Name = 5S88_LU8.pdb
REMARK  6 active torsions:
REMARK  status: ('A' for Active; 'I' for Inactive)
REMARK    1  A    between atoms: _2  and  _3
REMARK    2  A    between atoms: _5  and  _6
REMARK    3  A    between atoms: _10  and  _11
REMARK    4  A    between atoms: _14  and  _15
REMARK    5  A    between atoms: _27  and  _28
REMARK    6  A    between atoms: _30  and  _31
REMARK                            x       y       z     vdW  Elec       q    Type
REMARK                         _______ _______ _______ _____ _____    ______ ____
ROOT
ATOM      1  C   UNL     1      10.213  35.428  30.767  0.00  0.00    +0.015 A 
ATOM      2  C   UNL     1       9.422  35.830  29.702  0.00  0.00    -0.019 A 
ATOM      3  C   UNL     1       8.264  34.973  29.286  0.00  0.00    +0.031 C 
ATOM      4  C   UNL     1       9.654  37.060  29.019  0.00  0.00    +0.015 A 
ATOM      5  C   UNL     1      10.667  37.812  29.548  0.00  0.00    +0.099 A 
ATOM      6  N   UNL     1      11.402  37.456  30.561  0.00  0.00    -0.242 NA
ATOM      7  C   UNL     1      11.210  36.286  31.181  0.00  0.00    +0.099 A 
ENDROOT
BRANCH   1  12
ATOM      8  C   UNL     1      10.485  31.863  32.022  0.00  0.00    +0.175 A 
ATOM      9  C   UNL     1       9.503  31.842  32.991  0.00  0.00    +0.206 A 
ATOM     10  C   UNL     1       8.718  32.957  33.184  0.00  0.00    +0.175 A 
ATOM     11  C   UNL     1       8.948  34.096  32.442  0.00  0.00    +0.040 A 
ATOM     12  C   UNL     1       9.965  34.144  31.477  0.00  0.00    +0.007 A 
ATOM     13  C   UNL     1      10.716  32.991  31.253  0.00  0.00    +0.040 A 
BRANCH   8  15
ATOM     14  C   UNL     1      12.599  30.763  32.019  0.00  0.00    +0.253 C 
ATOM     15  O   UNL     1      11.161  30.695  31.870  0.00  0.00    -0.468 OA
ENDBRANCH   8  15
BRANCH   9  16
ATOM     16  O   UNL     1       9.307  30.727  33.770  0.00  0.00    -0.465 OA
ATOM     17  C   UNL     1       9.988  30.643  34.976  0.00  0.00    +0.253 C 
ENDBRANCH   9  16
BRANCH  10  18
ATOM     18  O   UNL     1       7.749  32.859  34.169  0.00  0.00    -0.468 OA
ATOM     19  C   UNL     1       6.364  32.711  33.837  0.00  0.00    +0.253 C 
ENDBRANCH  10  18
ENDBRANCH   1  12
BRANCH   4  20
ATOM     20  C   UNL     1       8.875  37.555  27.875  0.00  0.00    +0.001 A 
ATOM     21  C   UNL     1       9.228  37.174  26.530  0.00  0.00    -0.000 A 
ATOM     22  C   UNL     1       8.539  37.624  25.432  0.00  0.00    -0.004 A 
ATOM     23  C   UNL     1       7.473  38.526  25.587  0.00  0.00    -0.022 A 
ATOM     24  C   UNL     1       7.124  38.883  26.907  0.00  0.00    -0.004 A 
ATOM     25  C   UNL     1       7.808  38.468  27.992  0.00  0.00    -0.000 A 
BRANCH  23  26
ATOM     26  C   UNL     1       6.733  38.898  24.353  0.00  0.00    +0.025 C 
ATOM     27  C   UNL     1       6.491  37.772  23.393  0.00  0.00    +0.022 C 
ATOM     28  C   UNL     1       5.580  38.328  22.301  0.00  0.00    +0.072 C 
ATOM     29  N   UNL     1       6.293  39.336  21.465  0.00  0.00    -0.271 NA
ATOM     30  C   UNL     1       7.394  38.713  20.689  0.00  0.00    +0.090 C 
ATOM     31  C   UNL     1       6.749  40.483  22.289  0.00  0.00    +0.072 C 
ATOM     32  C   UNL     1       7.380  40.098  23.642  0.00  0.00    +0.022 C 
ENDBRANCH  23  26
ENDBRANCH   4  20
TORSDOF 6
ENDMDL
MODEL 7
REMARK VINA RESULT:      -5.7      4.561     11.583
REMARK  Name = 5S88_LU8.pdb
REMARK  6 active torsions:
REMARK  status: ('A' for Active; 'I' for Inactive)
REMARK    1  A    between atoms: _2  and  _3
REMARK    2  A    between atoms: _5  and  _6
REMARK    3  A    between atoms: _10  and  _11
REMARK    4  A    between atoms: _14  and  _15
REMARK    5  A    between atoms: _27  and  _28
REMARK    6  A    between atoms: _30  and  _31
REMARK                            x       y       z     vdW  Elec       q    Type
REMARK                         _______ _______ _______ _____ _____    ______ ____
ROOT
ATOM      1  C   UNL     1       8.753  38.224  25.307  0.00  0.00    +0.015 A 
ATOM      2  C   UNL     1       8.153  38.152  24.059  0.00  0.00    -0.019 A 
ATOM      3  C   UNL     1       6.664  38.004  23.971  0.00  0.00    +0.031 C 
ATOM      4  C   UNL     1       8.911  38.258  22.856  0.00  0.00    +0.015 A 
ATOM      5  C   UNL     1      10.243  38.497  23.053  0.00  0.00    +0.099 A 
ATOM      6  N   UNL     1      10.815  38.589  24.218  0.00  0.00    -0.242 NA
ATOM      7  C   UNL     1      10.112  38.453  25.349  0.00  0.00    +0.099 A 
ENDROOT
BRANCH   1  12
ATOM      8  C   UNL     1       7.095  36.908  28.450  0.00  0.00    +0.175 A 
ATOM      9  C   UNL     1       6.575  38.068  28.987  0.00  0.00    +0.206 A 
ATOM     10  C   UNL     1       6.706  39.252  28.296  0.00  0.00    +0.175 A 
ATOM     11  C   UNL     1       7.393  39.278  27.101  0.00  0.00    +0.040 A 
ATOM     12  C   UNL     1       7.957  38.113  26.559  0.00  0.00    +0.007 A 
ATOM     13  C   UNL     1       7.770  36.911  27.241  0.00  0.00    +0.040 A 
BRANCH   8  15
ATOM     14  C   UNL     1       8.024  35.022  29.574  0.00  0.00    +0.253 C 
ATOM     15  O   UNL     1       6.860  35.786  29.179  0.00  0.00    -0.468 OA
ENDBRANCH   8  15
BRANCH   9  16
ATOM     16  O   UNL     1       5.937  38.055  30.204  0.00  0.00    -0.465 OA
ATOM     17  C   UNL     1       6.716  38.105  31.351  0.00  0.00    +0.253 C 
ENDBRANCH   9  16
BRANCH  10  18
ATOM     18  O   UNL     1       6.152  40.372  28.893  0.00  0.00    -0.468 OA
ATOM     19  C   UNL     1       5.815  41.534  28.126  0.00  0.00    +0.253 C 
ENDBRANCH  10  18
ENDBRANCH   1  12
BRANCH   4  20
ATOM     20  C   UNL     1       8.359  38.179  21.497  0.00  0.00    +0.001 A 
ATOM     21  C   UNL     1       7.892  39.366  20.826  0.00  0.00    -0.000 A 
ATOM     22  C   UNL     1       7.355  39.337  19.564  0.00  0.00    -0.004 A 
ATOM     23  C   UNL     1       7.198  38.114  18.890  0.00  0.00    -0.022 A 
ATOM     24  C   UNL     1       7.672  36.957  19.546  0.00  0.00    -0.004 A 
ATOM     25  C   UNL     1       8.178  36.969  20.796  0.00  0.00    -0.000 A 
BRANCH  23  26
ATOM     26  C   UNL     1       6.684  38.182  17.497  0.00  0.00    +0.025 C 
ATOM     27  C   UNL     1       7.660  37.763  16.438  0.00  0.00    +0.022 C 
ATOM     28  C   UNL     1       6.883  37.744  15.124  0.00  0.00    +0.072 C 
ATOM     29  N   UNL     1       6.499  39.122  14.703  0.00  0.00    -0.271 NA
ATOM     30  C   UNL     1       7.695  39.936  14.366  0.00  0.00    +0.090 C 
ATOM     31  C   UNL     1       5.634  39.768  15.720  0.00  0.00    +0.072 C 
ATOM     32  C   UNL     1       6.087  39.563  17.180  0.00  0.00    +0.022 C 
ENDBRANCH  23  26
ENDBRANCH   4  20
TORSDOF 6
ENDMDL
MODEL 8
REMARK VINA RESULT:      -5.7      4.440     10.318
REMARK  Name = 5S88_LU8.pdb
REMARK  6 active torsions:
REMARK  status: ('A' for Active; 'I' for Inactive)
REMARK    1  A    between atoms: _2  and  _3
REMARK    2  A    between atoms: _5  and  _6
REMARK    3  A    between atoms: _10  and  _11
REMARK    4  A    between atoms: _14  and  _15
REMARK    5  A    between atoms: _27  and  _28
REMARK    6  A    between atoms: _30  and  _31
REMARK                            x       y       z     vdW  Elec       q    Type
REMARK                         _______ _______ _______ _____ _____    ______ ____
ROOT
ATOM      1  C   UNL     1      10.024  35.689  30.799  0.00  0.00    +0.015 A 
ATOM      2  C   UNL     1       9.243  36.038  29.708  0.00  0.00    -0.019 A 
ATOM      3  C   UNL     1       8.041  35.207  29.373  0.00  0.00    +0.031 C 
ATOM      4  C   UNL     1       9.529  37.192  28.921  0.00  0.00    +0.015 A 
ATOM      5  C   UNL     1      10.583  37.934  29.378  0.00  0.00    +0.099 A 
ATOM      6  N   UNL     1      11.309  37.630  30.413  0.00  0.00    -0.242 NA
ATOM      7  C   UNL     1      11.066  36.528  31.133  0.00  0.00    +0.099 A 
ENDROOT
BRANCH   1  12
ATOM      8  C   UNL     1       8.396  33.240  33.189  0.00  0.00    +0.175 A 
ATOM      9  C   UNL     1       9.156  32.108  32.975  0.00  0.00    +0.206 A 
ATOM     10  C   UNL     1      10.228  32.165  32.112  0.00  0.00    +0.175 A 
ATOM     11  C   UNL     1      10.505  33.335  31.436  0.00  0.00    +0.040 A 
ATOM     12  C   UNL     1       9.720  34.484  31.618  0.00  0.00    +0.007 A 
ATOM     13  C   UNL     1       8.672  34.429  32.535  0.00  0.00    +0.040 A 
BRANCH   8  15
ATOM     14  C   UNL     1       7.534  33.862  35.322  0.00  0.00    +0.253 C 
ATOM     15  O   UNL     1       7.401  33.095  34.102  0.00  0.00    -0.468 OA
ENDBRANCH   8  15
BRANCH   9  16
ATOM     16  O   UNL     1       8.850  30.926  33.605  0.00  0.00    -0.465 OA
ATOM     17  C   UNL     1       9.454  30.661  34.826  0.00  0.00    +0.253 C 
ENDBRANCH   9  16
BRANCH  10  18
ATOM     18  O   UNL     1      10.948  30.993  31.954  0.00  0.00    -0.468 OA
ATOM     19  C   UNL     1      12.348  31.015  31.651  0.00  0.00    +0.253 C 
ENDBRANCH  10  18
ENDBRANCH   1  12
BRANCH   4  20
ATOM     20  C   UNL     1       8.764  37.625  27.743  0.00  0.00    +0.001 A 
ATOM     21  C   UNL     1       9.010  37.033  26.452  0.00  0.00    -0.000 A 
ATOM     22  C   UNL     1       8.332  37.417  25.323  0.00  0.00    -0.004 A 
ATOM     23  C   UNL     1       7.387  38.456  25.385  0.00  0.00    -0.022 A 
ATOM     24  C   UNL     1       7.140  39.021  26.655  0.00  0.00    -0.004 A 
ATOM     25  C   UNL     1       7.818  38.669  27.766  0.00  0.00    -0.000 A 
BRANCH  23  26
ATOM     26  C   UNL     1       6.642  38.752  24.134  0.00  0.00    +0.025 C 
ATOM     27  C   UNL     1       6.248  37.550  23.328  0.00  0.00    +0.022 C 
ATOM     28  C   UNL     1       5.358  38.063  22.199  0.00  0.00    +0.072 C 
ATOM     29  N   UNL     1       6.139  38.880  21.226  0.00  0.00    -0.271 NA
ATOM     30  C   UNL     1       7.139  38.052  20.506  0.00  0.00    +0.090 C 
ATOM     31  C   UNL     1       6.743  40.062  21.887  0.00  0.00    +0.072 C 
ATOM     32  C   UNL     1       7.382  39.780  23.262  0.00  0.00    +0.022 C 
ENDBRANCH  23  26
ENDBRANCH   4  20
TORSDOF 6
ENDMDL
MODEL 9
REMARK VINA RESULT:      -5.6      7.877      9.044
REMARK  Name = 5S88_LU8.pdb
REMARK  6 active torsions:
REMARK  status: ('A' for Active; 'I' for Inactive)
REMARK    1  A    between atoms: _2  and  _3
REMARK    2  A    between atoms: _5  and  _6
REMARK    3  A    between atoms: _10  and  _11
REMARK    4  A    between atoms: _14  and  _15
REMARK    5  A    between atoms: _27  and  _28
REMARK    6  A    between atoms: _30  and  _31
REMARK                            x       y       z     vdW  Elec       q    Type
REMARK                         _______ _______ _______ _____ _____    ______ ____
ROOT
ATOM      1  C   UNL     1       7.243  40.989  21.749  0.00  0.00    +0.015 A 
ATOM      2  C   UNL     1       6.536  40.860  22.935  0.00  0.00    -0.019 A 
ATOM      3  C   UNL     1       6.217  39.488  23.450  0.00  0.00    +0.031 C 
ATOM      4  C   UNL     1       6.142  41.997  23.700  0.00  0.00    +0.015 A 
ATOM      5  C   UNL     1       6.576  43.191  23.193  0.00  0.00    +0.099 A 
ATOM      6  N   UNL     1       7.259  43.325  22.094  0.00  0.00    -0.242 NA
ATOM      7  C   UNL     1       7.599  42.262  21.354  0.00  0.00    +0.099 A 
ENDROOT
BRANCH   1  12
ATOM      8  C   UNL     1       7.444  38.287  19.101  0.00  0.00    +0.175 A 
ATOM      9  C   UNL     1       8.616  37.649  19.455  0.00  0.00    +0.206 A 
ATOM     10  C   UNL     1       9.294  38.054  20.583  0.00  0.00    +0.175 A 
ATOM     11  C   UNL     1       8.823  39.119  21.322  0.00  0.00    +0.040 A 
ATOM     12  C   UNL     1       7.652  39.799  20.955  0.00  0.00    +0.007 A 
ATOM     13  C   UNL     1       6.946  39.344  19.843  0.00  0.00    +0.040 A 
BRANCH   8  15
ATOM     14  C   UNL     1       6.566  38.695  16.923  0.00  0.00    +0.253 C 
ATOM     15  O   UNL     1       6.822  37.773  18.008  0.00  0.00    -0.468 OA
ENDBRANCH   8  15
BRANCH   9  16
ATOM     16  O   UNL     1       9.116  36.623  18.690  0.00  0.00    -0.465 OA
ATOM     17  C   UNL     1       9.990  36.940  17.660  0.00  0.00    +0.253 C 
ENDBRANCH   9  16
BRANCH  10  18
ATOM     18  O   UNL     1      10.456  37.362  20.879  0.00  0.00    -0.468 OA
ATOM     19  C   UNL     1      11.736  38.003  20.832  0.00  0.00    +0.253 C 
ENDBRANCH  10  18
ENDBRANCH   1  12
BRANCH   4  20
ATOM     20  C   UNL     1       5.381  41.951  24.957  0.00  0.00    +0.001 A 
ATOM     21  C   UNL     1       6.063  41.815  26.220  0.00  0.00    -0.000 A 
ATOM     22  C   UNL     1       5.392  41.752  27.415  0.00  0.00    -0.004 A 
ATOM     23  C   UNL     1       3.988  41.771  27.441  0.00  0.00    -0.022 A 
ATOM     24  C   UNL     1       3.328  41.920  26.202  0.00  0.00    -0.004 A 
ATOM     25  C   UNL     1       3.973  41.958  25.018  0.00  0.00    -0.000 A 
BRANCH  23  26
ATOM     26  C   UNL     1       3.347  41.780  28.781  0.00  0.00    +0.025 C 
ATOM     27  C   UNL     1       2.581  43.027  29.112  0.00  0.00    +0.022 C 
ATOM     28  C   UNL     1       1.873  42.757  30.437  0.00  0.00    +0.072 C 
ATOM     29  N   UNL     1       2.849  42.653  31.560  0.00  0.00    -0.271 NA
ATOM     30  C   UNL     1       3.527  43.951  31.808  0.00  0.00    +0.090 C 
ATOM     31  C   UNL     1       3.805  41.541  31.332  0.00  0.00    +0.072 C 
ATOM     32  C   UNL     1       4.352  41.441  29.894  0.00  0.00    +0.022 C 
ENDBRANCH  23  26
ENDBRANCH   4  20
TORSDOF 6
ENDMDL
