MODEL 1
REMARK VINA RESULT:      -8.1      0.000      0.000
REMARK  Name = 6GIP_EUN.pdb
REMARK  3 active torsions:
REMARK  status: ('A' for Active; 'I' for Inactive)
REMARK    1  A    between atoms: _1  and  _2
REMARK    2  A    between atoms: _9  and  _10
REMARK    3  A    between atoms: _20  and  _21
REMARK                            x       y       z     vdW  Elec       q    Type
REMARK                         _______ _______ _______ _____ _____    ______ ____
ROOT
ATOM      1  C   UNL     1       6.348  20.459  11.158  0.00  0.00    +0.086 C 
ATOM      2  C   UNL     1       6.516  21.238  12.434  0.00  0.00    +0.107 A 
ATOM      3  N   UNL     1       5.988  20.684  13.631  0.00  0.00    -0.234 NA
ATOM      4  C   UNL     1       6.134  21.407  14.883  0.00  0.00    +0.078 A 
ATOM      5  C   UNL     1       5.592  20.798  16.043  0.00  0.00    +0.029 A 
ATOM      6  C   UNL     1       5.693  21.399  17.277  0.00  0.00    +0.011 A 
ATOM      7  C   UNL     1       6.311  22.629  17.390  0.00  0.00    -0.013 A 
ATOM      8  C   UNL     1       6.859  23.249  16.245  0.00  0.00    -0.028 A 
ATOM      9  C   UNL     1       7.555  24.585  16.375  0.00  0.00    +0.045 C 
ATOM     10  C   UNL     1       6.762  22.613  14.959  0.00  0.00    +0.068 A 
ATOM     11  C   UNL     1       7.323  23.207  13.681  0.00  0.00    +0.259 A 
ATOM     12  O   UNL     1       7.888  24.286  13.685  0.00  0.00    -0.267 OA
ATOM     13  N   UNL     1       7.182  22.501  12.469  0.00  0.00    -0.311 N 
ATOM     14  H   UNL     1       7.521  22.854  11.698  0.00  0.00    +0.170 HD
ENDROOT
BRANCH   7  15
ATOM     15  C   UNL     1       6.402  23.202  18.658  0.00  0.00    -0.007 A 
ATOM     16  C   UNL     1       7.328  22.767  19.663  0.00  0.00    +0.008 A 
ATOM     17  C   UNL     1       8.245  21.715  19.419  0.00  0.00    +0.010 A 
ATOM     18  C   UNL     1       9.133  21.304  20.415  0.00  0.00    +0.001 A 
ATOM     19  C   UNL     1       9.119  21.923  21.661  0.00  0.00    +0.002 A 
ATOM     20  C   UNL     1       8.217  22.951  21.900  0.00  0.00    +0.028 A 
ATOM     21  C   UNL     1       7.314  23.368  20.884  0.00  0.00    +0.072 A 
ATOM     22  N   UNL     1       6.435  24.403  21.155  0.00  0.00    -0.255 NA
ATOM     23  C   UNL     1       5.559  24.837  20.230  0.00  0.00    +0.112 A 
ATOM     24  C   UNL     1       5.530  24.233  18.966  0.00  0.00    +0.029 A 
ENDBRANCH   7  15
TORSDOF 1
ENDMDL
MODEL 2
REMARK VINA RESULT:      -8.0      2.232      6.791
REMARK  Name = 6GIP_EUN.pdb
REMARK  3 active torsions:
REMARK  status: ('A' for Active; 'I' for Inactive)
REMARK    1  A    between atoms: _1  and  _2
REMARK    2  A    between atoms: _9  and  _10
REMARK    3  A    between atoms: _20  and  _21
REMARK                            x       y       z     vdW  Elec       q    Type
REMARK                         _______ _______ _______ _____ _____    ______ ____
ROOT
ATOM      1  C   UNL     1       9.381  21.494  21.017  0.00  0.00    +0.086 C 
ATOM      2  C   UNL     1       8.892  21.778  19.623  0.00  0.00    +0.107 A 
ATOM      3  N   UNL     1       7.657  21.202  19.218  0.00  0.00    -0.234 NA
ATOM      4  C   UNL     1       7.152  21.455  17.879  0.00  0.00    +0.078 A 
ATOM      5  C   UNL     1       5.912  20.859  17.538  0.00  0.00    +0.029 A 
ATOM      6  C   UNL     1       5.345  21.053  16.299  0.00  0.00    +0.011 A 
ATOM      7  C   UNL     1       6.002  21.822  15.359  0.00  0.00    -0.013 A 
ATOM      8  C   UNL     1       7.238  22.425  15.683  0.00  0.00    -0.028 A 
ATOM      9  C   UNL     1       7.945  23.285  14.659  0.00  0.00    +0.045 C 
ATOM     10  C   UNL     1       7.822  22.230  16.982  0.00  0.00    +0.068 A 
ATOM     11  C   UNL     1       9.141  22.842  17.413  0.00  0.00    +0.259 A 
ATOM     12  O   UNL     1       9.790  23.538  16.651  0.00  0.00    -0.267 OA
ATOM     13  N   UNL     1       9.627  22.596  18.714  0.00  0.00    -0.311 N 
ATOM     14  H   UNL     1      10.420  22.965  18.978  0.00  0.00    +0.170 HD
ENDROOT
BRANCH   7  15
ATOM     15  C   UNL     1       5.392  22.002  14.118  0.00  0.00    -0.007 A 
ATOM     16  C   UNL     1       5.495  21.066  13.037  0.00  0.00    +0.008 A 
ATOM     17  C   UNL     1       6.225  19.859  13.171  0.00  0.00    +0.010 A 
ATOM     18  C   UNL     1       6.317  18.965  12.102  0.00  0.00    +0.001 A 
ATOM     19  C   UNL     1       5.696  19.258  10.892  0.00  0.00    +0.002 A 
ATOM     20  C   UNL     1       4.985  20.443  10.761  0.00  0.00    +0.028 A 
ATOM     21  C   UNL     1       4.892  21.351  11.851  0.00  0.00    +0.072 A 
ATOM     22  N   UNL     1       4.166  22.519  11.687  0.00  0.00    -0.255 NA
ATOM     23  C   UNL     1       4.046  23.414  12.686  0.00  0.00    +0.112 A 
ATOM     24  C   UNL     1       4.667  23.165  13.917  0.00  0.00    +0.029 A 
ENDBRANCH   7  15
TORSDOF 1
ENDMDL
MODEL 3
REMARK VINA RESULT:      -7.6      1.407      2.214
REMARK  Name = 6GIP_EUN.pdb
REMARK  3 active torsions:
REMARK  status: ('A' for Active; 'I' for Inactive)
REMARK    1  A    between atoms: _1  and  _2
REMARK    2  A    between atoms: _9  and  _10
REMARK    3  A    between atoms: _20  and  _21
REMARK                            x       y       z     vdW  Elec       q    Type
REMARK                         _______ _______ _______ _____ _____    ______ ____
ROOT
ATOM      1  C   UNL     1       6.578  22.319  11.108  0.00  0.00    +0.086 C 
ATOM      2  C   UNL     1       6.460  22.351  12.608  0.00  0.00    +0.107 A 
ATOM      3  N   UNL     1       6.727  23.577  13.274  0.00  0.00    -0.234 NA
ATOM      4  C   UNL     1       6.621  23.646  14.721  0.00  0.00    +0.078 A 
ATOM      5  C   UNL     1       6.892  24.900  15.325  0.00  0.00    +0.029 A 
ATOM      6  C   UNL     1       6.803  25.068  16.688  0.00  0.00    +0.011 A 
ATOM      7  C   UNL     1       6.468  23.994  17.490  0.00  0.00    -0.013 A 
ATOM      8  C   UNL     1       6.192  22.738  16.904  0.00  0.00    -0.028 A 
ATOM      9  C   UNL     1       5.804  21.569  17.782  0.00  0.00    +0.045 C 
ATOM     10  C   UNL     1       6.274  22.569  15.479  0.00  0.00    +0.068 A 
ATOM     11  C   UNL     1       5.994  21.258  14.768  0.00  0.00    +0.259 A 
ATOM     12  O   UNL     1       5.687  20.258  15.394  0.00  0.00    -0.267 OA
ATOM     13  N   UNL     1       6.094  21.196  13.364  0.00  0.00    -0.311 N 
ATOM     14  H   UNL     1       5.923  20.410  12.932  0.00  0.00    +0.170 HD
ENDROOT
BRANCH   7  15
ATOM     15  C   UNL     1       6.380  24.206  18.866  0.00  0.00    -0.007 A 
ATOM     16  C   UNL     1       7.320  23.682  19.813  0.00  0.00    +0.008 A 
ATOM     17  C   UNL     1       8.438  22.915  19.399  0.00  0.00    +0.010 A 
ATOM     18  C   UNL     1       9.336  22.409  20.340  0.00  0.00    +0.001 A 
ATOM     19  C   UNL     1       9.137  22.652  21.696  0.00  0.00    +0.002 A 
ATOM     20  C   UNL     1       8.040  23.400  22.100  0.00  0.00    +0.028 A 
ATOM     21  C   UNL     1       7.127  23.914  21.140  0.00  0.00    +0.072 A 
ATOM     22  N   UNL     1       6.049  24.665  21.578  0.00  0.00    -0.255 NA
ATOM     23  C   UNL     1       5.153  25.175  20.712  0.00  0.00    +0.112 A 
ATOM     24  C   UNL     1       5.308  24.944  19.339  0.00  0.00    +0.029 A 
ENDBRANCH   7  15
TORSDOF 1
ENDMDL
MODEL 4
REMARK VINA RESULT:      -7.5      5.525      7.602
REMARK  Name = 6GIP_EUN.pdb
REMARK  3 active torsions:
REMARK  status: ('A' for Active; 'I' for Inactive)
REMARK    1  A    between atoms: _1  and  _2
REMARK    2  A    between atoms: _9  and  _10
REMARK    3  A    between atoms: _20  and  _21
REMARK                            x       y       z     vdW  Elec       q    Type
REMARK                         _______ _______ _______ _____ _____    ______ ____
ROOT
ATOM      1  C   UNL     1       5.879  22.955  18.531  0.00  0.00    +0.086 C 
ATOM      2  C   UNL     1       7.338  22.797  18.866  0.00  0.00    +0.107 A 
ATOM      3  N   UNL     1       8.238  23.805  18.428  0.00  0.00    -0.234 NA
ATOM      4  C   UNL     1       9.653  23.688  18.735  0.00  0.00    +0.078 A 
ATOM      5  C   UNL     1      10.498  24.729  18.276  0.00  0.00    +0.029 A 
ATOM      6  C   UNL     1      11.851  24.714  18.531  0.00  0.00    +0.011 A 
ATOM      7  C   UNL     1      12.405  23.655  19.223  0.00  0.00    -0.013 A 
ATOM      8  C   UNL     1      11.577  22.609  19.689  0.00  0.00    -0.028 A 
ATOM      9  C   UNL     1      12.182  21.461  20.466  0.00  0.00    +0.045 C 
ATOM     10  C   UNL     1      10.163  22.634  19.432  0.00  0.00    +0.068 A 
ATOM     11  C   UNL     1       9.202  21.556  19.896  0.00  0.00    +0.259 A 
ATOM     12  O   UNL     1       9.600  20.585  20.517  0.00  0.00    -0.267 OA
ATOM     13  N   UNL     1       7.829  21.675  19.600  0.00  0.00    -0.311 N 
ATOM     14  H   UNL     1       7.248  21.029  19.880  0.00  0.00    +0.170 HD
ENDROOT
BRANCH   7  15
ATOM     15  C   UNL     1      13.777  23.679  19.469  0.00  0.00    -0.007 A 
ATOM     16  C   UNL     1      14.753  23.105  18.589  0.00  0.00    +0.008 A 
ATOM     17  C   UNL     1      14.377  22.479  17.375  0.00  0.00    +0.010 A 
ATOM     18  C   UNL     1      15.344  21.920  16.537  0.00  0.00    +0.001 A 
ATOM     19  C   UNL     1      16.688  21.970  16.893  0.00  0.00    +0.002 A 
ATOM     20  C   UNL     1      17.055  22.579  18.085  0.00  0.00    +0.028 A 
ATOM     21  C   UNL     1      16.068  23.148  18.936  0.00  0.00    +0.072 A 
ATOM     22  N   UNL     1      16.472  23.757  20.113  0.00  0.00    -0.255 NA
ATOM     23  C   UNL     1      15.579  24.311  20.955  0.00  0.00    +0.112 A 
ATOM     24  C   UNL     1      14.214  24.271  20.642  0.00  0.00    +0.029 A 
ENDBRANCH   7  15
TORSDOF 1
ENDMDL
MODEL 5
REMARK VINA RESULT:      -7.4      2.999      4.274
REMARK  Name = 6GIP_EUN.pdb
REMARK  3 active torsions:
REMARK  status: ('A' for Active; 'I' for Inactive)
REMARK    1  A    between atoms: _1  and  _2
REMARK    2  A    between atoms: _9  and  _10
REMARK    3  A    between atoms: _20  and  _21
REMARK                            x       y       z     vdW  Elec       q    Type
REMARK                         _______ _______ _______ _____ _____    ______ ____
ROOT
ATOM      1  C   UNL     1       4.938  18.371   8.380  0.00  0.00    +0.086 C 
ATOM      2  C   UNL     1       4.985  19.213   9.626  0.00  0.00    +0.107 A 
ATOM      3  N   UNL     1       5.725  18.724  10.737  0.00  0.00    -0.234 NA
ATOM      4  C   UNL     1       5.794  19.510  11.956  0.00  0.00    +0.078 A 
ATOM      5  C   UNL     1       6.554  18.971  13.025  0.00  0.00    +0.029 A 
ATOM      6  C   UNL     1       6.691  19.649  14.215  0.00  0.00    +0.011 A 
ATOM      7  C   UNL     1       6.059  20.866  14.385  0.00  0.00    -0.013 A 
ATOM      8  C   UNL     1       5.300  21.419  13.330  0.00  0.00    -0.028 A 
ATOM      9  C   UNL     1       4.627  22.761  13.511  0.00  0.00    +0.045 C 
ATOM     10  C   UNL     1       5.169  20.713  12.084  0.00  0.00    +0.068 A 
ATOM     11  C   UNL     1       4.375  21.234  10.900  0.00  0.00    +0.259 A 
ATOM     12  O   UNL     1       3.788  22.300  10.958  0.00  0.00    -0.267 OA
ATOM     13  N   UNL     1       4.313  20.469   9.717  0.00  0.00    -0.311 N 
ATOM     14  H   UNL     1       3.839  20.781   9.002  0.00  0.00    +0.170 HD
ENDROOT
BRANCH   7  15
ATOM     15  C   UNL     1       6.228  21.527  15.602  0.00  0.00    -0.007 A 
ATOM     16  C   UNL     1       7.107  22.646  15.784  0.00  0.00    +0.008 A 
ATOM     17  C   UNL     1       7.862  23.176  14.708  0.00  0.00    +0.010 A 
ATOM     18  C   UNL     1       8.716  24.261  14.911  0.00  0.00    +0.001 A 
ATOM     19  C   UNL     1       8.836  24.828  16.176  0.00  0.00    +0.002 A 
ATOM     20  C   UNL     1       8.099  24.305  17.229  0.00  0.00    +0.028 A 
ATOM     21  C   UNL     1       7.229  23.200  17.020  0.00  0.00    +0.072 A 
ATOM     22  N   UNL     1       6.501  22.711  18.092  0.00  0.00    -0.255 NA
ATOM     23  C   UNL     1       5.664  21.666  17.951  0.00  0.00    +0.112 A 
ATOM     24  C   UNL     1       5.523  21.056  16.697  0.00  0.00    +0.029 A 
ENDBRANCH   7  15
TORSDOF 1
ENDMDL
MODEL 6
REMARK VINA RESULT:      -7.3      4.380      6.226
REMARK  Name = 6GIP_EUN.pdb
REMARK  3 active torsions:
REMARK  status: ('A' for Active; 'I' for Inactive)
REMARK    1  A    between atoms: _1  and  _2
REMARK    2  A    between atoms: _9  and  _10
REMARK    3  A    between atoms: _20  and  _21
REMARK                            x       y       z     vdW  Elec       q    Type
REMARK                         _______ _______ _______ _____ _____    ______ ____
ROOT
ATOM      1  C   UNL     1       5.590  21.007  17.406  0.00  0.00    +0.086 C 
ATOM      2  C   UNL     1       6.872  21.639  17.879  0.00  0.00    +0.107 A 
ATOM      3  N   UNL     1       7.596  20.989  18.914  0.00  0.00    -0.234 NA
ATOM      4  C   UNL     1       8.839  21.568  19.394  0.00  0.00    +0.078 A 
ATOM      5  C   UNL     1       9.518  20.869  20.424  0.00  0.00    +0.029 A 
ATOM      6  C   UNL     1      10.710  21.331  20.933  0.00  0.00    +0.011 A 
ATOM      7  C   UNL     1      11.247  22.510  20.455  0.00  0.00    -0.013 A 
ATOM      8  C   UNL     1      10.585  23.219  19.428  0.00  0.00    -0.028 A 
ATOM      9  C   UNL     1      11.186  24.499  18.890  0.00  0.00    +0.045 C 
ATOM     10  C   UNL     1       9.346  22.727  18.889  0.00  0.00    +0.068 A 
ATOM     11  C   UNL     1       8.570  23.423  17.787  0.00  0.00    +0.259 A 
ATOM     12  O   UNL     1       8.970  24.467  17.301  0.00  0.00    -0.267 OA
ATOM     13  N   UNL     1       7.367  22.856  17.321  0.00  0.00    -0.311 N 
ATOM     14  H   UNL     1       6.899  23.271  16.656  0.00  0.00    +0.170 HD
ENDROOT
BRANCH   7  15
ATOM     15  C   UNL     1      12.460  22.942  20.990  0.00  0.00    -0.007 A 
ATOM     16  C   UNL     1      13.735  22.674  20.390  0.00  0.00    +0.008 A 
ATOM     17  C   UNL     1      13.843  21.952  19.175  0.00  0.00    +0.010 A 
ATOM     18  C   UNL     1      15.095  21.697  18.613  0.00  0.00    +0.001 A 
ATOM     19  C   UNL     1      16.249  22.146  19.247  0.00  0.00    +0.002 A 
ATOM     20  C   UNL     1      16.142  22.849  20.439  0.00  0.00    +0.028 A 
ATOM     21  C   UNL     1      14.866  23.108  21.009  0.00  0.00    +0.072 A 
ATOM     22  N   UNL     1      14.796  23.821  22.195  0.00  0.00    -0.255 NA
ATOM     23  C   UNL     1      13.614  24.093  22.779  0.00  0.00    +0.112 A 
ATOM     24  C   UNL     1      12.427  23.648  22.181  0.00  0.00    +0.029 A 
ENDBRANCH   7  15
TORSDOF 1
ENDMDL
MODEL 7
REMARK VINA RESULT:      -7.2      2.710      6.970
REMARK  Name = 6GIP_EUN.pdb
REMARK  3 active torsions:
REMARK  status: ('A' for Active; 'I' for Inactive)
REMARK    1  A    between atoms: _1  and  _2
REMARK    2  A    between atoms: _9  and  _10
REMARK    3  A    between atoms: _20  and  _21
REMARK                            x       y       z     vdW  Elec       q    Type
REMARK                         _______ _______ _______ _____ _____    ______ ____
ROOT
ATOM      1  C   UNL     1      11.411  23.156  19.631  0.00  0.00    +0.086 C 
ATOM      2  C   UNL     1      10.216  22.894  18.755  0.00  0.00    +0.107 A 
ATOM      3  N   UNL     1      10.186  23.492  17.466  0.00  0.00    -0.234 NA
ATOM      4  C   UNL     1       9.050  23.259  16.592  0.00  0.00    +0.078 A 
ATOM      5  C   UNL     1       9.084  23.877  15.316  0.00  0.00    +0.029 A 
ATOM      6  C   UNL     1       8.060  23.703  14.413  0.00  0.00    +0.011 A 
ATOM      7  C   UNL     1       6.966  22.935  14.759  0.00  0.00    -0.013 A 
ATOM      8  C   UNL     1       6.916  22.310  16.025  0.00  0.00    -0.028 A 
ATOM      9  C   UNL     1       5.727  21.451  16.393  0.00  0.00    +0.045 C 
ATOM     10  C   UNL     1       7.993  22.483  16.962  0.00  0.00    +0.068 A 
ATOM     11  C   UNL     1       8.022  21.849  18.339  0.00  0.00    +0.259 A 
ATOM     12  O   UNL     1       7.101  21.152  18.729  0.00  0.00    -0.267 OA
ATOM     13  N   UNL     1       9.128  22.074  19.183  0.00  0.00    -0.311 N 
ATOM     14  H   UNL     1       9.150  21.692  20.012  0.00  0.00    +0.170 HD
ENDROOT
BRANCH   7  15
ATOM     15  C   UNL     1       5.952  22.775  13.814  0.00  0.00    -0.007 A 
ATOM     16  C   UNL     1       5.827  21.624  12.968  0.00  0.00    +0.008 A 
ATOM     17  C   UNL     1       6.736  20.540  13.054  0.00  0.00    +0.010 A 
ATOM     18  C   UNL     1       6.599  19.433  12.215  0.00  0.00    +0.001 A 
ATOM     19  C   UNL     1       5.569  19.389  11.282  0.00  0.00    +0.002 A 
ATOM     20  C   UNL     1       4.682  20.453  11.195  0.00  0.00    +0.028 A 
ATOM     21  C   UNL     1       4.823  21.579  12.051  0.00  0.00    +0.072 A 
ATOM     22  N   UNL     1       3.914  22.618  11.943  0.00  0.00    -0.255 NA
ATOM     23  C   UNL     1       4.001  23.709  12.728  0.00  0.00    +0.112 A 
ATOM     24  C   UNL     1       5.032  23.801  13.673  0.00  0.00    +0.029 A 
ENDBRANCH   7  15
TORSDOF 1
ENDMDL
MODEL 8
REMARK VINA RESULT:      -7.1      3.371      5.609
REMARK  Name = 6GIP_EUN.pdb
REMARK  3 active torsions:
REMARK  status: ('A' for Active; 'I' for Inactive)
REMARK    1  A    between atoms: _1  and  _2
REMARK    2  A    between atoms: _9  and  _10
REMARK    3  A    between atoms: _20  and  _21
REMARK                            x       y       z     vdW  Elec       q    Type
REMARK                         _______ _______ _______ _____ _____    ______ ____
ROOT
ATOM      1  C   UNL     1       4.983  18.473   6.678  0.00  0.00    +0.086 C 
ATOM      2  C   UNL     1       4.983  19.381   7.877  0.00  0.00    +0.107 A 
ATOM      3  N   UNL     1       6.160  19.440   8.672  0.00  0.00    -0.234 NA
ATOM      4  C   UNL     1       6.198  20.307   9.836  0.00  0.00    +0.078 A 
ATOM      5  C   UNL     1       7.403  20.326  10.583  0.00  0.00    +0.029 A 
ATOM      6  C   UNL     1       7.541  21.128  11.694  0.00  0.00    +0.011 A 
ATOM      7  C   UNL     1       6.481  21.911  12.107  0.00  0.00    -0.013 A 
ATOM      8  C   UNL     1       5.274  21.906  11.373  0.00  0.00    -0.028 A 
ATOM      9  C   UNL     1       4.122  22.781  11.816  0.00  0.00    +0.045 C 
ATOM     10  C   UNL     1       5.137  21.077  10.207  0.00  0.00    +0.068 A 
ATOM     11  C   UNL     1       3.880  21.012   9.361  0.00  0.00    +0.259 A 
ATOM     12  O   UNL     1       2.896  21.671   9.648  0.00  0.00    -0.267 OA
ATOM     13  N   UNL     1       3.847  20.171   8.230  0.00  0.00    -0.311 N 
ATOM     14  H   UNL     1       3.093  20.131   7.717  0.00  0.00    +0.170 HD
ENDROOT
BRANCH   7  15
ATOM     15  C   UNL     1       6.661  22.716  13.232  0.00  0.00    -0.007 A 
ATOM     16  C   UNL     1       6.407  22.277  14.573  0.00  0.00    +0.008 A 
ATOM     17  C   UNL     1       5.965  20.959  14.849  0.00  0.00    +0.010 A 
ATOM     18  C   UNL     1       5.718  20.556  16.163  0.00  0.00    +0.001 A 
ATOM     19  C   UNL     1       5.898  21.451  17.213  0.00  0.00    +0.002 A 
ATOM     20  C   UNL     1       6.327  22.743  16.940  0.00  0.00    +0.028 A 
ATOM     21  C   UNL     1       6.579  23.151  15.602  0.00  0.00    +0.072 A 
ATOM     22  N   UNL     1       7.015  24.445  15.369  0.00  0.00    -0.255 NA
ATOM     23  C   UNL     1       7.268  24.883  14.121  0.00  0.00    +0.112 A 
ATOM     24  C   UNL     1       7.086  24.019  13.033  0.00  0.00    +0.029 A 
ENDBRANCH   7  15
TORSDOF 1
ENDMDL
MODEL 9
REMARK VINA RESULT:      -6.8      3.117      8.902
REMARK  Name = 6GIP_EUN.pdb
REMARK  3 active torsions:
REMARK  status: ('A' for Active; 'I' for Inactive)
REMARK    1  A    between atoms: _1  and  _2
REMARK    2  A    between atoms: _9  and  _10
REMARK    3  A    between atoms: _20  and  _21
REMARK                            x       y       z     vdW  Elec       q    Type
REMARK                         _______ _______ _______ _____ _____    ______ ____
ROOT
ATOM      1  C   UNL     1       6.909  21.462  18.215  0.00  0.00    +0.086 C 
ATOM      2  C   UNL     1       6.548  21.364  16.757  0.00  0.00    +0.107 A 
ATOM      3  N   UNL     1       6.827  20.146  16.080  0.00  0.00    -0.234 NA
ATOM      4  C   UNL     1       6.491  20.013  14.673  0.00  0.00    +0.078 A 
ATOM      5  C   UNL     1       6.788  18.772  14.056  0.00  0.00    +0.029 A 
ATOM      6  C   UNL     1       6.492  18.546  12.731  0.00  0.00    +0.011 A 
ATOM      7  C   UNL     1       5.918  19.551  11.977  0.00  0.00    -0.013 A 
ATOM      8  C   UNL     1       5.613  20.793  12.576  0.00  0.00    -0.028 A 
ATOM      9  C   UNL     1       4.965  21.885  11.754  0.00  0.00    +0.045 C 
ATOM     10  C   UNL     1       5.912  21.022  13.964  0.00  0.00    +0.068 A 
ATOM     11  C   UNL     1       5.618  22.324  14.686  0.00  0.00    +0.259 A 
ATOM     12  O   UNL     1       5.109  23.264  14.102  0.00  0.00    -0.267 OA
ATOM     13  N   UNL     1       5.943  22.447  16.052  0.00  0.00    -0.311 N 
ATOM     14  H   UNL     1       5.765  23.228  16.491  0.00  0.00    +0.170 HD
ENDROOT
BRANCH   7  15
ATOM     15  C   UNL     1       5.626  19.281  10.640  0.00  0.00    -0.007 A 
ATOM     16  C   UNL     1       4.541  18.445  10.216  0.00  0.00    +0.008 A 
ATOM     17  C   UNL     1       3.663  17.841  11.151  0.00  0.00    +0.010 A 
ATOM     18  C   UNL     1       2.618  17.025  10.715  0.00  0.00    +0.001 A 
ATOM     19  C   UNL     1       2.433  16.794   9.356  0.00  0.00    +0.002 A 
ATOM     20  C   UNL     1       3.296  17.383   8.442  0.00  0.00    +0.028 A 
ATOM     21  C   UNL     1       4.359  18.214   8.888  0.00  0.00    +0.072 A 
ATOM     22  N   UNL     1       5.195  18.793   7.947  0.00  0.00    -0.255 NA
ATOM     23  C   UNL     1       6.218  19.588   8.314  0.00  0.00    +0.112 A 
ATOM     24  C   UNL     1       6.448  19.836   9.673  0.00  0.00    +0.029 A 
ENDBRANCH   7  15
TORSDOF 1
ENDMDL
