MODEL 1
REMARK VINA RESULT:     -10.3      0.000      0.000
REMARK  Name = 3Q4U_LDN.pdb
REMARK  3 active torsions:
REMARK  status: ('A' for Active; 'I' for Inactive)
REMARK    1  A    between atoms: _18  and  _19
REMARK    2  A    between atoms: _20  and  _30
REMARK    3  A    between atoms: _21  and  _22
REMARK                            x       y       z     vdW  Elec       q    Type
REMARK                         _______ _______ _______ _____ _____    ______ ____
ROOT
ATOM      1  C   UNL     1       6.347  23.319  17.019  0.00  0.00    +0.057 A 
ATOM      2  C   UNL     1       6.244  24.369  16.124  0.00  0.00    +0.165 A 
ATOM      3  N   UNL     1       5.894  23.786  14.870  0.00  0.00    -0.211 N 
ATOM      4  N   UNL     1       5.822  22.556  15.010  0.00  0.00    -0.162 NA
ATOM      5  C   UNL     1       5.706  24.580  13.765  0.00  0.00    +0.104 A 
ATOM      6  C   UNL     1       5.889  25.947  13.877  0.00  0.00    +0.038 A 
ATOM      7  C   UNL     1       6.199  26.491  15.128  0.00  0.00    +0.102 A 
ATOM      8  N   UNL     1       6.422  25.708  16.229  0.00  0.00    -0.225 NA
ATOM      9  C   UNL     1       6.092  22.241  16.300  0.00  0.00    +0.124 A 
ENDROOT
BRANCH   1  14
ATOM     10  C   UNL     1       4.981  25.980  21.309  0.00  0.00    +0.002 A 
ATOM     11  C   UNL     1       5.946  25.059  21.674  0.00  0.00    +0.019 A 
ATOM     12  C   UNL     1       6.516  24.187  20.750  0.00  0.00    +0.081 A 
ATOM     13  C   UNL     1       6.103  24.245  19.399  0.00  0.00    +0.018 A 
ATOM     14  C   UNL     1       6.688  23.371  18.435  0.00  0.00    +0.008 A 
ATOM     15  C   UNL     1       7.589  22.443  18.928  0.00  0.00    +0.021 A 
ATOM     16  C   UNL     1       7.977  22.435  20.283  0.00  0.00    +0.099 A 
ATOM     17  C   UNL     1       5.153  25.197  19.053  0.00  0.00    +0.001 A 
ATOM     18  N   UNL     1       7.417  23.280  21.154  0.00  0.00    -0.244 NA
ATOM     19  C   UNL     1       4.570  26.057  19.983  0.00  0.00    +0.000 A 
ENDBRANCH   1  14
BRANCH   6  20
ATOM     20  C   UNL     1       5.632  26.740  12.741  0.00  0.00    +0.003 A 
ATOM     21  C   UNL     1       5.622  28.142  12.804  0.00  0.00    +0.001 A 
ATOM     22  C   UNL     1       5.424  28.874  11.619  0.00  0.00    +0.015 A 
ATOM     23  C   UNL     1       5.227  28.251  10.404  0.00  0.00    +0.048 A 
ATOM     24  C   UNL     1       5.243  26.870  10.349  0.00  0.00    +0.015 A 
ATOM     25  C   UNL     1       5.479  26.131  11.507  0.00  0.00    +0.001 A 
BRANCH  23  26
ATOM     26  N   UNL     1       5.053  28.955   9.169  0.00  0.00    -0.305 N 
ATOM     27  C   UNL     1       3.813  29.697   8.900  0.00  0.00    +0.110 C 
ATOM     28  C   UNL     1       3.850  30.549   7.601  0.00  0.00    +0.110 C 
ATOM     29  N   UNL     1       4.437  29.831   6.444  0.00  0.00    -0.214 NA
ATOM     30  C   UNL     1       5.042  28.533   6.818  0.00  0.00    +0.110 C 
ATOM     31  C   UNL     1       5.943  28.695   8.033  0.00  0.00    +0.110 C 
ENDBRANCH  23  26
ENDBRANCH   6  20
TORSDOF 3
ENDMDL
MODEL 2
REMARK VINA RESULT:      -9.9      1.462      2.601
REMARK  Name = 3Q4U_LDN.pdb
REMARK  3 active torsions:
REMARK  status: ('A' for Active; 'I' for Inactive)
REMARK    1  A    between atoms: _18  and  _19
REMARK    2  A    between atoms: _20  and  _30
REMARK    3  A    between atoms: _21  and  _22
REMARK                            x       y       z     vdW  Elec       q    Type
REMARK                         _______ _______ _______ _____ _____    ______ ____
ROOT
ATOM      1  C   UNL     1       7.080  26.517  17.082  0.00  0.00    +0.057 A 
ATOM      2  C   UNL     1       6.582  26.462  15.793  0.00  0.00    +0.165 A 
ATOM      3  N   UNL     1       6.668  27.789  15.277  0.00  0.00    -0.211 N 
ATOM      4  N   UNL     1       7.136  28.527  16.158  0.00  0.00    -0.162 NA
ATOM      5  C   UNL     1       6.255  28.064  13.997  0.00  0.00    +0.104 A 
ATOM      6  C   UNL     1       5.727  27.044  13.224  0.00  0.00    +0.038 A 
ATOM      7  C   UNL     1       5.688  25.746  13.747  0.00  0.00    +0.102 A 
ATOM      8  N   UNL     1       6.065  25.466  15.033  0.00  0.00    -0.225 NA
ATOM      9  C   UNL     1       7.395  27.787  17.264  0.00  0.00    +0.124 A 
ENDROOT
BRANCH   1  14
ATOM     10  C   UNL     1       5.191  25.165  21.767  0.00  0.00    +0.002 A 
ATOM     11  C   UNL     1       6.057  24.167  21.358  0.00  0.00    +0.019 A 
ATOM     12  C   UNL     1       6.725  24.230  20.138  0.00  0.00    +0.081 A 
ATOM     13  C   UNL     1       6.519  25.345  19.294  0.00  0.00    +0.018 A 
ATOM     14  C   UNL     1       7.208  25.433  18.048  0.00  0.00    +0.008 A 
ATOM     15  C   UNL     1       7.991  24.343  17.711  0.00  0.00    +0.021 A 
ATOM     16  C   UNL     1       8.173  23.261  18.594  0.00  0.00    +0.099 A 
ATOM     17  C   UNL     1       5.667  26.346  19.740  0.00  0.00    +0.001 A 
ATOM     18  N   UNL     1       7.522  23.219  19.760  0.00  0.00    -0.244 NA
ATOM     19  C   UNL     1       4.984  26.273  20.954  0.00  0.00    +0.000 A 
ENDBRANCH   1  14
BRANCH   6  20
ATOM     20  C   UNL     1       5.367  27.345  11.896  0.00  0.00    +0.003 A 
ATOM     21  C   UNL     1       4.985  26.345  10.988  0.00  0.00    +0.001 A 
ATOM     22  C   UNL     1       4.573  26.720   9.696  0.00  0.00    +0.015 A 
ATOM     23  C   UNL     1       4.548  28.040   9.297  0.00  0.00    +0.048 A 
ATOM     24  C   UNL     1       4.921  29.020  10.198  0.00  0.00    +0.015 A 
ATOM     25  C   UNL     1       5.292  28.668  11.494  0.00  0.00    +0.001 A 
BRANCH  23  26
ATOM     26  N   UNL     1       4.108  28.471   8.004  0.00  0.00    -0.305 N 
ATOM     27  C   UNL     1       5.012  29.216   7.116  0.00  0.00    +0.110 C 
ATOM     28  C   UNL     1       4.448  29.453   5.688  0.00  0.00    +0.110 C 
ATOM     29  N   UNL     1       3.031  29.891   5.681  0.00  0.00    -0.214 NA
ATOM     30  C   UNL     1       2.399  29.816   7.017  0.00  0.00    +0.110 C 
ATOM     31  C   UNL     1       2.681  28.470   7.666  0.00  0.00    +0.110 C 
ENDBRANCH  23  26
ENDBRANCH   6  20
TORSDOF 3
ENDMDL
MODEL 3
REMARK VINA RESULT:      -9.7      5.615     10.987
REMARK  Name = 3Q4U_LDN.pdb
REMARK  3 active torsions:
REMARK  status: ('A' for Active; 'I' for Inactive)
REMARK    1  A    between atoms: _18  and  _19
REMARK    2  A    between atoms: _20  and  _30
REMARK    3  A    between atoms: _21  and  _22
REMARK                            x       y       z     vdW  Elec       q    Type
REMARK                         _______ _______ _______ _____ _____    ______ ____
ROOT
ATOM      1  C   UNL     1       7.401  24.387  16.954  0.00  0.00    +0.057 A 
ATOM      2  C   UNL     1       8.774  24.441  17.115  0.00  0.00    +0.165 A 
ATOM      3  N   UNL     1       9.044  23.885  18.400  0.00  0.00    -0.211 N 
ATOM      4  N   UNL     1       7.968  23.567  18.929  0.00  0.00    -0.162 NA
ATOM      5  C   UNL     1      10.336  23.788  18.856  0.00  0.00    +0.104 A 
ATOM      6  C   UNL     1      11.368  24.261  18.065  0.00  0.00    +0.038 A 
ATOM      7  C   UNL     1      11.073  24.770  16.795  0.00  0.00    +0.102 A 
ATOM      8  N   UNL     1       9.787  24.904  16.344  0.00  0.00    -0.225 NA
ATOM      9  C   UNL     1       6.954  23.859  18.079  0.00  0.00    +0.124 A 
ENDROOT
BRANCH   1  14
ATOM     10  C   UNL     1       6.060  28.857  14.594  0.00  0.00    +0.002 A 
ATOM     11  C   UNL     1       5.473  27.818  13.894  0.00  0.00    +0.019 A 
ATOM     12  C   UNL     1       5.644  26.489  14.272  0.00  0.00    +0.081 A 
ATOM     13  C   UNL     1       6.435  26.189  15.405  0.00  0.00    +0.018 A 
ATOM     14  C   UNL     1       6.607  24.834  15.816  0.00  0.00    +0.008 A 
ATOM     15  C   UNL     1       6.034  23.876  14.999  0.00  0.00    +0.021 A 
ATOM     16  C   UNL     1       5.244  24.228  13.886  0.00  0.00    +0.099 A 
ATOM     17  C   UNL     1       6.990  27.251  16.107  0.00  0.00    +0.001 A 
ATOM     18  N   UNL     1       5.093  25.510  13.540  0.00  0.00    -0.244 NA
ATOM     19  C   UNL     1       6.833  28.580  15.716  0.00  0.00    +0.000 A 
ENDBRANCH   1  14
BRANCH   6  20
ATOM     20  C   UNL     1      12.686  24.093  18.534  0.00  0.00    +0.003 A 
ATOM     21  C   UNL     1      13.334  25.082  19.291  0.00  0.00    +0.001 A 
ATOM     22  C   UNL     1      14.625  24.823  19.785  0.00  0.00    +0.015 A 
ATOM     23  C   UNL     1      15.274  23.633  19.532  0.00  0.00    +0.048 A 
ATOM     24  C   UNL     1      14.629  22.662  18.790  0.00  0.00    +0.015 A 
ATOM     25  C   UNL     1      13.333  22.886  18.329  0.00  0.00    +0.001 A 
BRANCH  23  26
ATOM     26  N   UNL     1      16.575  23.314  20.039  0.00  0.00    -0.305 N 
ATOM     27  C   UNL     1      17.759  23.406  19.172  0.00  0.00    +0.110 C 
ATOM     28  C   UNL     1      19.108  23.203  19.914  0.00  0.00    +0.110 C 
ATOM     29  N   UNL     1      19.092  22.063  20.863  0.00  0.00    -0.214 NA
ATOM     30  C   UNL     1      17.740  21.489  21.049  0.00  0.00    +0.110 C 
ATOM     31  C   UNL     1      16.723  22.591  21.307  0.00  0.00    +0.110 C 
ENDBRANCH  23  26
ENDBRANCH   6  20
TORSDOF 3
ENDMDL
MODEL 4
REMARK VINA RESULT:      -9.5      4.709      6.209
REMARK  Name = 3Q4U_LDN.pdb
REMARK  3 active torsions:
REMARK  status: ('A' for Active; 'I' for Inactive)
REMARK    1  A    between atoms: _18  and  _19
REMARK    2  A    between atoms: _20  and  _30
REMARK    3  A    between atoms: _21  and  _22
REMARK                            x       y       z     vdW  Elec       q    Type
REMARK                         _______ _______ _______ _____ _____    ______ ____
ROOT
ATOM      1  C   UNL     1       6.961  24.006  17.286  0.00  0.00    +0.057 A 
ATOM      2  C   UNL     1       6.529  23.071  16.362  0.00  0.00    +0.165 A 
ATOM      3  N   UNL     1       6.761  23.648  15.078  0.00  0.00    -0.211 N 
ATOM      4  N   UNL     1       7.245  24.779  15.233  0.00  0.00    -0.162 NA
ATOM      5  C   UNL     1       6.441  22.953  13.938  0.00  0.00    +0.104 A 
ATOM      6  C   UNL     1       5.867  21.699  14.051  0.00  0.00    +0.038 A 
ATOM      7  C   UNL     1       5.684  21.147  15.324  0.00  0.00    +0.102 A 
ATOM      8  N   UNL     1       5.966  21.843  16.468  0.00  0.00    -0.225 NA
ATOM      9  C   UNL     1       7.378  25.026  16.559  0.00  0.00    +0.124 A 
ENDROOT
BRANCH   1  14
ATOM     10  C   UNL     1       4.622  26.316  21.353  0.00  0.00    +0.002 A 
ATOM     11  C   UNL     1       5.450  25.326  21.850  0.00  0.00    +0.019 A 
ATOM     12  C   UNL     1       6.216  24.520  21.012  0.00  0.00    +0.081 A 
ATOM     13  C   UNL     1       6.151  24.719  19.613  0.00  0.00    +0.018 A 
ATOM     14  C   UNL     1       6.941  23.913  18.741  0.00  0.00    +0.008 A 
ATOM     15  C   UNL     1       7.675  22.907  19.344  0.00  0.00    +0.021 A 
ATOM     16  C   UNL     1       7.715  22.758  20.745  0.00  0.00    +0.099 A 
ATOM     17  C   UNL     1       5.334  25.737  19.141  0.00  0.00    +0.001 A 
ATOM     18  N   UNL     1       6.972  23.542  21.532  0.00  0.00    -0.244 NA
ATOM     19  C   UNL     1       4.553  26.531  19.981  0.00  0.00    +0.000 A 
ENDBRANCH   1  14
BRANCH   6  20
ATOM     20  C   UNL     1       5.605  20.986  12.863  0.00  0.00    +0.003 A 
ATOM     21  C   UNL     1       4.917  21.568  11.787  0.00  0.00    +0.001 A 
ATOM     22  C   UNL     1       4.748  20.822  10.606  0.00  0.00    +0.015 A 
ATOM     23  C   UNL     1       5.226  19.534  10.485  0.00  0.00    +0.048 A 
ATOM     24  C   UNL     1       5.906  18.969  11.548  0.00  0.00    +0.015 A 
ATOM     25  C   UNL     1       6.119  19.709  12.710  0.00  0.00    +0.001 A 
BRANCH  23  26
ATOM     26  N   UNL     1       5.104  18.749   9.293  0.00  0.00    -0.305 N 
ATOM     27  C   UNL     1       5.417  19.330   7.980  0.00  0.00    +0.110 C 
ATOM     28  C   UNL     1       5.408  18.305   6.813  0.00  0.00    +0.110 C 
ATOM     29  N   UNL     1       4.247  17.382   6.849  0.00  0.00    -0.214 NA
ATOM     30  C   UNL     1       3.456  17.502   8.095  0.00  0.00    +0.110 C 
ATOM     31  C   UNL     1       4.370  17.480   9.312  0.00  0.00    +0.110 C 
ENDBRANCH  23  26
ENDBRANCH   6  20
TORSDOF 3
ENDMDL
MODEL 5
REMARK VINA RESULT:      -9.5      1.623      3.327
REMARK  Name = 3Q4U_LDN.pdb
REMARK  3 active torsions:
REMARK  status: ('A' for Active; 'I' for Inactive)
REMARK    1  A    between atoms: _18  and  _19
REMARK    2  A    between atoms: _20  and  _30
REMARK    3  A    between atoms: _21  and  _22
REMARK                            x       y       z     vdW  Elec       q    Type
REMARK                         _______ _______ _______ _____ _____    ______ ____
ROOT
ATOM      1  C   UNL     1       6.881  26.793  17.144  0.00  0.00    +0.057 A 
ATOM      2  C   UNL     1       6.391  26.718  15.852  0.00  0.00    +0.165 A 
ATOM      3  N   UNL     1       6.737  27.952  15.226  0.00  0.00    -0.211 N 
ATOM      4  N   UNL     1       7.333  28.662  16.050  0.00  0.00    -0.162 NA
ATOM      5  C   UNL     1       6.392  28.186  13.917  0.00  0.00    +0.104 A 
ATOM      6  C   UNL     1       5.682  27.222  13.223  0.00  0.00    +0.038 A 
ATOM      7  C   UNL     1       5.388  26.008  13.855  0.00  0.00    +0.102 A 
ATOM      8  N   UNL     1       5.695  25.777  15.170  0.00  0.00    -0.225 NA
ATOM      9  C   UNL     1       7.435  27.989  17.221  0.00  0.00    +0.124 A 
ENDROOT
BRANCH   1  14
ATOM     10  C   UNL     1       9.267  22.380  18.622  0.00  0.00    +0.002 A 
ATOM     11  C   UNL     1       8.267  22.646  19.539  0.00  0.00    +0.019 A 
ATOM     12  C   UNL     1       7.446  23.765  19.427  0.00  0.00    +0.081 A 
ATOM     13  C   UNL     1       7.633  24.654  18.343  0.00  0.00    +0.018 A 
ATOM     14  C   UNL     1       6.790  25.796  18.203  0.00  0.00    +0.008 A 
ATOM     15  C   UNL     1       5.873  26.000  19.219  0.00  0.00    +0.021 A 
ATOM     16  C   UNL     1       5.718  25.077  20.273  0.00  0.00    +0.099 A 
ATOM     17  C   UNL     1       8.624  24.349  17.420  0.00  0.00    +0.001 A 
ATOM     18  N   UNL     1       6.517  24.010  20.363  0.00  0.00    -0.244 NA
ATOM     19  C   UNL     1       9.458  23.238  17.544  0.00  0.00    +0.000 A 
ENDBRANCH   1  14
BRANCH   6  20
ATOM     20  C   UNL     1       5.396  27.466  11.865  0.00  0.00    +0.003 A 
ATOM     21  C   UNL     1       5.059  26.428  10.982  0.00  0.00    +0.001 A 
ATOM     22  C   UNL     1       4.720  26.749   9.655  0.00  0.00    +0.015 A 
ATOM     23  C   UNL     1       4.723  28.050   9.199  0.00  0.00    +0.048 A 
ATOM     24  C   UNL     1       5.051  29.067  10.075  0.00  0.00    +0.015 A 
ATOM     25  C   UNL     1       5.349  28.771  11.404  0.00  0.00    +0.001 A 
BRANCH  23  26
ATOM     26  N   UNL     1       4.355  28.426   7.866  0.00  0.00    -0.305 N 
ATOM     27  C   UNL     1       4.008  27.404   6.870  0.00  0.00    +0.110 C 
ATOM     28  C   UNL     1       3.461  27.977   5.533  0.00  0.00    +0.110 C 
ATOM     29  N   UNL     1       4.241  29.133   5.027  0.00  0.00    -0.214 NA
ATOM     30  C   UNL     1       5.248  29.617   5.998  0.00  0.00    +0.110 C 
ATOM     31  C   UNL     1       4.623  29.782   7.376  0.00  0.00    +0.110 C 
ENDBRANCH  23  26
ENDBRANCH   6  20
TORSDOF 3
ENDMDL
MODEL 6
REMARK VINA RESULT:      -9.4      5.693     11.123
REMARK  Name = 3Q4U_LDN.pdb
REMARK  3 active torsions:
REMARK  status: ('A' for Active; 'I' for Inactive)
REMARK    1  A    between atoms: _18  and  _19
REMARK    2  A    between atoms: _20  and  _30
REMARK    3  A    between atoms: _21  and  _22
REMARK                            x       y       z     vdW  Elec       q    Type
REMARK                         _______ _______ _______ _____ _____    ______ ____
ROOT
ATOM      1  C   UNL     1       7.503  24.675  16.942  0.00  0.00    +0.057 A 
ATOM      2  C   UNL     1       8.876  24.698  17.107  0.00  0.00    +0.165 A 
ATOM      3  N   UNL     1       9.134  24.076  18.364  0.00  0.00    -0.211 N 
ATOM      4  N   UNL     1       8.052  23.750  18.875  0.00  0.00    -0.162 NA
ATOM      5  C   UNL     1      10.424  23.935  18.816  0.00  0.00    +0.104 A 
ATOM      6  C   UNL     1      11.465  24.429  18.051  0.00  0.00    +0.038 A 
ATOM      7  C   UNL     1      11.181  25.004  16.807  0.00  0.00    +0.102 A 
ATOM      8  N   UNL     1       9.899  25.182  16.361  0.00  0.00    -0.225 NA
ATOM      9  C   UNL     1       7.045  24.100  18.039  0.00  0.00    +0.124 A 
ENDROOT
BRANCH   1  14
ATOM     10  C   UNL     1       4.442  22.871  13.105  0.00  0.00    +0.002 A 
ATOM     11  C   UNL     1       4.485  24.249  12.997  0.00  0.00    +0.019 A 
ATOM     12  C   UNL     1       5.220  25.032  13.883  0.00  0.00    +0.081 A 
ATOM     13  C   UNL     1       5.948  24.405  14.920  0.00  0.00    +0.018 A 
ATOM     14  C   UNL     1       6.719  25.191  15.827  0.00  0.00    +0.008 A 
ATOM     15  C   UNL     1       6.629  26.563  15.667  0.00  0.00    +0.021 A 
ATOM     16  C   UNL     1       5.899  27.138  14.608  0.00  0.00    +0.099 A 
ATOM     17  C   UNL     1       5.910  23.019  14.991  0.00  0.00    +0.001 A 
ATOM     18  N   UNL     1       5.199  26.369  13.769  0.00  0.00    -0.244 NA
ATOM     19  C   UNL     1       5.159  22.237  14.114  0.00  0.00    +0.000 A 
ENDBRANCH   1  14
BRANCH   6  20
ATOM     20  C   UNL     1      12.780  24.217  18.513  0.00  0.00    +0.003 A 
ATOM     21  C   UNL     1      13.501  25.220  19.180  0.00  0.00    +0.001 A 
ATOM     22  C   UNL     1      14.783  24.920  19.674  0.00  0.00    +0.015 A 
ATOM     23  C   UNL     1      15.353  23.675  19.508  0.00  0.00    +0.048 A 
ATOM     24  C   UNL     1      14.635  22.691  18.854  0.00  0.00    +0.015 A 
ATOM     25  C   UNL     1      13.347  22.959  18.396  0.00  0.00    +0.001 A 
BRANCH  23  26
ATOM     26  N   UNL     1      16.642  23.316  20.020  0.00  0.00    -0.305 N 
ATOM     27  C   UNL     1      17.830  23.366  19.156  0.00  0.00    +0.110 C 
ATOM     28  C   UNL     1      19.170  23.122  19.903  0.00  0.00    +0.110 C 
ATOM     29  N   UNL     1      19.114  21.988  20.857  0.00  0.00    -0.214 NA
ATOM     30  C   UNL     1      17.743  21.460  21.041  0.00  0.00    +0.110 C 
ATOM     31  C   UNL     1      16.762  22.595  21.291  0.00  0.00    +0.110 C 
ENDBRANCH  23  26
ENDBRANCH   6  20
TORSDOF 3
ENDMDL
MODEL 7
REMARK VINA RESULT:      -9.4      0.811      2.171
REMARK  Name = 3Q4U_LDN.pdb
REMARK  3 active torsions:
REMARK  status: ('A' for Active; 'I' for Inactive)
REMARK    1  A    between atoms: _18  and  _19
REMARK    2  A    between atoms: _20  and  _30
REMARK    3  A    between atoms: _21  and  _22
REMARK                            x       y       z     vdW  Elec       q    Type
REMARK                         _______ _______ _______ _____ _____    ______ ____
ROOT
ATOM      1  C   UNL     1       6.194  24.201  17.344  0.00  0.00    +0.057 A 
ATOM      2  C   UNL     1       6.052  25.124  16.324  0.00  0.00    +0.165 A 
ATOM      3  N   UNL     1       6.167  24.390  15.107  0.00  0.00    -0.211 N 
ATOM      4  N   UNL     1       6.370  23.197  15.380  0.00  0.00    -0.162 NA
ATOM      5  C   UNL     1       6.060  25.031  13.897  0.00  0.00    +0.104 A 
ATOM      6  C   UNL     1       5.867  26.401  13.874  0.00  0.00    +0.038 A 
ATOM      7  C   UNL     1       5.724  27.088  15.085  0.00  0.00    +0.102 A 
ATOM      8  N   UNL     1       5.864  26.466  16.297  0.00  0.00    -0.225 NA
ATOM      9  C   UNL     1       6.393  23.050  16.727  0.00  0.00    +0.124 A 
ENDROOT
BRANCH   1  14
ATOM     10  C   UNL     1       8.117  22.086  21.723  0.00  0.00    +0.002 A 
ATOM     11  C   UNL     1       7.373  23.195  22.083  0.00  0.00    +0.019 A 
ATOM     12  C   UNL     1       6.728  23.985  21.135  0.00  0.00    +0.081 A 
ATOM     13  C   UNL     1       6.830  23.644  19.766  0.00  0.00    +0.018 A 
ATOM     14  C   UNL     1       6.163  24.433  18.783  0.00  0.00    +0.008 A 
ATOM     15  C   UNL     1       5.509  25.559  19.251  0.00  0.00    +0.021 A 
ATOM     16  C   UNL     1       5.426  25.848  20.628  0.00  0.00    +0.099 A 
ATOM     17  C   UNL     1       7.560  22.511  19.434  0.00  0.00    +0.001 A 
ATOM     18  N   UNL     1       6.053  25.077  21.522  0.00  0.00    -0.244 NA
ATOM     19  C   UNL     1       8.221  21.731  20.383  0.00  0.00    +0.000 A 
ENDBRANCH   1  14
BRANCH   6  20
ATOM     20  C   UNL     1       5.701  27.021  12.620  0.00  0.00    +0.003 A 
ATOM     21  C   UNL     1       5.458  26.280  11.453  0.00  0.00    +0.001 A 
ATOM     22  C   UNL     1       5.236  26.965  10.246  0.00  0.00    +0.015 A 
ATOM     23  C   UNL     1       5.266  28.343  10.176  0.00  0.00    +0.048 A 
ATOM     24  C   UNL     1       5.502  29.067  11.330  0.00  0.00    +0.015 A 
ATOM     25  C   UNL     1       5.682  28.404  12.542  0.00  0.00    +0.001 A 
BRANCH  23  26
ATOM     26  N   UNL     1       5.016  29.084   8.976  0.00  0.00    -0.305 N 
ATOM     27  C   UNL     1       3.759  29.826   8.804  0.00  0.00    +0.110 C 
ATOM     28  C   UNL     1       3.717  30.719   7.533  0.00  0.00    +0.110 C 
ATOM     29  N   UNL     1       4.238  30.041   6.321  0.00  0.00    -0.214 NA
ATOM     30  C   UNL     1       4.869  28.736   6.618  0.00  0.00    +0.110 C 
ATOM     31  C   UNL     1       5.840  28.865   7.783  0.00  0.00    +0.110 C 
ENDBRANCH  23  26
ENDBRANCH   6  20
TORSDOF 3
ENDMDL
MODEL 8
REMARK VINA RESULT:      -9.3      4.684      6.548
REMARK  Name = 3Q4U_LDN.pdb
REMARK  3 active torsions:
REMARK  status: ('A' for Active; 'I' for Inactive)
REMARK    1  A    between atoms: _18  and  _19
REMARK    2  A    between atoms: _20  and  _30
REMARK    3  A    between atoms: _21  and  _22
REMARK                            x       y       z     vdW  Elec       q    Type
REMARK                         _______ _______ _______ _____ _____    ______ ____
ROOT
ATOM      1  C   UNL     1       6.434  24.644  17.447  0.00  0.00    +0.057 A 
ATOM      2  C   UNL     1       6.176  23.595  16.583  0.00  0.00    +0.165 A 
ATOM      3  N   UNL     1       6.489  24.072  15.276  0.00  0.00    -0.211 N 
ATOM      4  N   UNL     1       6.862  25.252  15.363  0.00  0.00    -0.162 NA
ATOM      5  C   UNL     1       6.345  23.251  14.185  0.00  0.00    +0.104 A 
ATOM      6  C   UNL     1       5.865  21.965  14.366  0.00  0.00    +0.038 A 
ATOM      7  C   UNL     1       5.599  21.516  15.664  0.00  0.00    +0.102 A 
ATOM      8  N   UNL     1       5.706  22.336  16.756  0.00  0.00    -0.225 NA
ATOM      9  C   UNL     1       6.839  25.628  16.665  0.00  0.00    +0.124 A 
ENDROOT
BRANCH   1  14
ATOM     10  C   UNL     1       8.140  22.078  21.672  0.00  0.00    +0.002 A 
ATOM     11  C   UNL     1       7.297  23.086  22.103  0.00  0.00    +0.019 A 
ATOM     12  C   UNL     1       6.679  23.958  21.211  0.00  0.00    +0.081 A 
ATOM     13  C   UNL     1       6.912  23.808  19.824  0.00  0.00    +0.018 A 
ATOM     14  C   UNL     1       6.273  24.681  18.895  0.00  0.00    +0.008 A 
ATOM     15  C   UNL     1       5.511  25.697  19.444  0.00  0.00    +0.021 A 
ATOM     16  C   UNL     1       5.299  25.796  20.834  0.00  0.00    +0.099 A 
ATOM     17  C   UNL     1       7.739  22.771  19.415  0.00  0.00    +0.001 A 
ATOM     18  N   UNL     1       5.903  24.950  21.674  0.00  0.00    -0.244 NA
ATOM     19  C   UNL     1       8.373  21.910  20.311  0.00  0.00    +0.000 A 
ENDBRANCH   1  14
BRANCH   6  20
ATOM     20  C   UNL     1       5.784  21.128  13.235  0.00  0.00    +0.003 A 
ATOM     21  C   UNL     1       6.381  19.857  13.211  0.00  0.00    +0.001 A 
ATOM     22  C   UNL     1       6.205  19.046  12.076  0.00  0.00    +0.015 A 
ATOM     23  C   UNL     1       5.476  19.471  10.985  0.00  0.00    +0.048 A 
ATOM     24  C   UNL     1       4.889  20.722  11.017  0.00  0.00    +0.015 A 
ATOM     25  C   UNL     1       5.018  21.521  12.151  0.00  0.00    +0.001 A 
BRANCH  23  26
ATOM     26  N   UNL     1       5.246  18.668   9.821  0.00  0.00    -0.305 N 
ATOM     27  C   UNL     1       5.507  19.206   8.478  0.00  0.00    +0.110 C 
ATOM     28  C   UNL     1       5.380  18.158   7.338  0.00  0.00    +0.110 C 
ATOM     29  N   UNL     1       4.182  17.294   7.465  0.00  0.00    -0.214 NA
ATOM     30  C   UNL     1       3.473  17.478   8.751  0.00  0.00    +0.110 C 
ATOM     31  C   UNL     1       4.456  17.436   9.912  0.00  0.00    +0.110 C 
ENDBRANCH  23  26
ENDBRANCH   6  20
TORSDOF 3
ENDMDL
MODEL 9
REMARK VINA RESULT:      -9.1      1.548     10.846
REMARK  Name = 3Q4U_LDN.pdb
REMARK  3 active torsions:
REMARK  status: ('A' for Active; 'I' for Inactive)
REMARK    1  A    between atoms: _18  and  _19
REMARK    2  A    between atoms: _20  and  _30
REMARK    3  A    between atoms: _21  and  _22
REMARK                            x       y       z     vdW  Elec       q    Type
REMARK                         _______ _______ _______ _____ _____    ______ ____
ROOT
ATOM      1  C   UNL     1       5.096  28.077   8.453  0.00  0.00    +0.057 A 
ATOM      2  C   UNL     1       5.246  27.965   9.824  0.00  0.00    +0.165 A 
ATOM      3  N   UNL     1       5.130  26.575  10.123  0.00  0.00    -0.211 N 
ATOM      4  N   UNL     1       4.920  25.958   9.068  0.00  0.00    -0.162 NA
ATOM      5  C   UNL     1       5.245  26.132  11.418  0.00  0.00    +0.104 A 
ATOM      6  C   UNL     1       5.445  27.054  12.431  0.00  0.00    +0.038 A 
ATOM      7  C   UNL     1       5.588  28.406  12.101  0.00  0.00    +0.102 A 
ATOM      8  N   UNL     1       5.442  28.863  10.819  0.00  0.00    -0.225 NA
ATOM      9  C   UNL     1       4.893  26.839   8.039  0.00  0.00    +0.124 A 
ENDROOT
BRANCH   1  14
ATOM     10  C   UNL     1       2.208  32.360   7.646  0.00  0.00    +0.002 A 
ATOM     11  C   UNL     1       3.322  32.443   6.830  0.00  0.00    +0.019 A 
ATOM     12  C   UNL     1       4.296  31.449   6.816  0.00  0.00    +0.081 A 
ATOM     13  C   UNL     1       4.144  30.319   7.652  0.00  0.00    +0.018 A 
ATOM     14  C   UNL     1       5.125  29.284   7.638  0.00  0.00    +0.008 A 
ATOM     15  C   UNL     1       6.232  29.509   6.838  0.00  0.00    +0.021 A 
ATOM     16  C   UNL     1       6.329  30.647   6.013  0.00  0.00    +0.099 A 
ATOM     17  C   UNL     1       3.004  30.246   8.440  0.00  0.00    +0.001 A 
ATOM     18  N   UNL     1       5.383  31.590   6.042  0.00  0.00    -0.244 NA
ATOM     19  C   UNL     1       2.038  31.252   8.468  0.00  0.00    +0.000 A 
ENDBRANCH   1  14
BRANCH   6  20
ATOM     20  C   UNL     1       5.618  26.564  13.742  0.00  0.00    +0.003 A 
ATOM     21  C   UNL     1       5.690  25.189  14.014  0.00  0.00    +0.001 A 
ATOM     22  C   UNL     1       5.929  24.770  15.335  0.00  0.00    +0.015 A 
ATOM     23  C   UNL     1       6.081  25.673  16.367  0.00  0.00    +0.048 A 
ATOM     24  C   UNL     1       6.013  27.025  16.091  0.00  0.00    +0.015 A 
ATOM     25  C   UNL     1       5.818  27.458  14.780  0.00  0.00    +0.001 A 
BRANCH  23  26
ATOM     26  N   UNL     1       6.356  25.293  17.721  0.00  0.00    -0.305 N 
ATOM     27  C   UNL     1       6.387  23.876  18.109  0.00  0.00    +0.110 C 
ATOM     28  C   UNL     1       6.873  23.625  19.563  0.00  0.00    +0.110 C 
ATOM     29  N   UNL     1       6.272  24.552  20.553  0.00  0.00    -0.214 NA
ATOM     30  C   UNL     1       5.495  25.642  19.921  0.00  0.00    +0.110 C 
ATOM     31  C   UNL     1       6.294  26.286  18.799  0.00  0.00    +0.110 C 
ENDBRANCH  23  26
ENDBRANCH   6  20
TORSDOF 3
ENDMDL
