MODEL 1
REMARK VINA RESULT:      -6.4      0.000      0.000
REMARK  Name = 4C02_TAK.pdb
REMARK  3 active torsions:
REMARK  status: ('A' for Active; 'I' for Inactive)
REMARK    1  A    between atoms: _1  and  _7
REMARK    2  A    between atoms: _12  and  _13
REMARK    3  A    between atoms: _18  and  _19
REMARK                            x       y       z     vdW  Elec       q    Type
REMARK                         _______ _______ _______ _____ _____    ______ ____
ROOT
ATOM      1  C   UNL     1      11.139  16.840  27.324  0.00  0.00    +0.038 A 
ATOM      2  C   UNL     1      11.768  17.877  28.035  0.00  0.00    +0.102 A 
ATOM      3  N   UNL     1      12.707  17.630  28.974  0.00  0.00    -0.225 NA
ATOM      4  C   UNL     1      13.062  16.322  29.289  0.00  0.00    +0.165 A 
ATOM      5  C   UNL     1      14.005  15.795  30.212  0.00  0.00    +0.057 A 
ATOM      6  C   UNL     1      13.891  14.416  30.053  0.00  0.00    +0.124 A 
ATOM      7  N   UNL     1      12.958  14.123  29.106  0.00  0.00    -0.162 NA
ATOM      8  N   UNL     1      12.473  15.332  28.660  0.00  0.00    -0.211 N 
ATOM      9  C   UNL     1      11.523  15.543  27.662  0.00  0.00    +0.104 A 
ENDROOT
BRANCH   1  13
ATOM     10  C   UNL     1       8.261  17.574  24.215  0.00  0.00    +0.139 A 
ATOM     11  C   UNL     1       9.538  18.060  24.121  0.00  0.00    +0.037 A 
ATOM     12  C   UNL     1      10.483  17.830  25.134  0.00  0.00    +0.003 A 
ATOM     13  C   UNL     1      10.154  17.100  26.280  0.00  0.00    +0.003 A 
ATOM     14  C   UNL     1       8.865  16.577  26.365  0.00  0.00    +0.003 A 
ATOM     15  C   UNL     1       7.931  16.811  25.359  0.00  0.00    +0.037 A 
BRANCH  10  16
ATOM     16  O   UNL     1       7.338  17.852  23.142  0.00  0.00    -0.471 OA
ATOM     17  C   UNL     1       6.363  16.889  22.819  0.00  0.00    +0.252 C 
ENDBRANCH  10  16
ENDBRANCH   1  13
BRANCH   5  18
ATOM     18  C   UNL     1      14.867  16.432  31.109  0.00  0.00    +0.008 A 
ATOM     19  C   UNL     1      14.513  17.527  31.873  0.00  0.00    +0.021 A 
ATOM     20  C   UNL     1      15.429  18.092  32.749  0.00  0.00    +0.099 A 
ATOM     21  N   UNL     1      16.655  17.568  32.874  0.00  0.00    -0.242 NA
ATOM     22  C   UNL     1      17.041  16.501  32.171  0.00  0.00    +0.099 A 
ATOM     23  C   UNL     1      16.146  15.923  31.285  0.00  0.00    +0.021 A 
ENDBRANCH   5  18
TORSDOF 3
ENDMDL
MODEL 2
REMARK VINA RESULT:      -6.4      5.363     10.846
REMARK  Name = 4C02_TAK.pdb
REMARK  3 active torsions:
REMARK  status: ('A' for Active; 'I' for Inactive)
REMARK    1  A    between atoms: _1  and  _7
REMARK    2  A    between atoms: _12  and  _13
REMARK    3  A    between atoms: _18  and  _19
REMARK                            x       y       z     vdW  Elec       q    Type
REMARK                         _______ _______ _______ _____ _____    ______ ____
ROOT
ATOM      1  C   UNL     1       8.990  16.859  23.500  0.00  0.00    +0.038 A 
ATOM      2  C   UNL     1       8.098  15.797  23.731  0.00  0.00    +0.102 A 
ATOM      3  N   UNL     1       7.232  15.375  22.783  0.00  0.00    -0.225 NA
ATOM      4  C   UNL     1       7.179  16.008  21.546  0.00  0.00    +0.165 A 
ATOM      5  C   UNL     1       6.383  15.765  20.394  0.00  0.00    +0.057 A 
ATOM      6  C   UNL     1       6.803  16.736  19.488  0.00  0.00    +0.124 A 
ATOM      7  N   UNL     1       7.781  17.507  20.038  0.00  0.00    -0.162 NA
ATOM      8  N   UNL     1       7.982  17.019  21.310  0.00  0.00    -0.211 N 
ATOM      9  C   UNL     1       8.912  17.466  22.247  0.00  0.00    +0.104 A 
ENDROOT
BRANCH   1  13
ATOM     10  C   UNL     1      11.835  18.188  26.437  0.00  0.00    +0.139 A 
ATOM     11  C   UNL     1      12.179  18.097  25.116  0.00  0.00    +0.037 A 
ATOM     12  C   UNL     1      11.259  17.658  24.150  0.00  0.00    +0.003 A 
ATOM     13  C   UNL     1       9.956  17.293  24.503  0.00  0.00    +0.003 A 
ATOM     14  C   UNL     1       9.592  17.415  25.843  0.00  0.00    +0.003 A 
ATOM     15  C   UNL     1      10.509  17.848  26.797  0.00  0.00    +0.037 A 
BRANCH  10  16
ATOM     16  O   UNL     1      12.830  18.640  27.379  0.00  0.00    -0.471 OA
ATOM     17  C   UNL     1      14.170  18.254  27.188  0.00  0.00    +0.252 C 
ENDBRANCH  10  16
ENDBRANCH   1  13
BRANCH   5  18
ATOM     18  C   UNL     1       5.388  14.815  20.148  0.00  0.00    +0.008 A 
ATOM     19  C   UNL     1       4.319  14.582  20.993  0.00  0.00    +0.021 A 
ATOM     20  C   UNL     1       3.368  13.626  20.667  0.00  0.00    +0.099 A 
ATOM     21  N   UNL     1       3.468  12.937  19.523  0.00  0.00    -0.242 NA
ATOM     22  C   UNL     1       4.470  13.136  18.665  0.00  0.00    +0.099 A 
ATOM     23  C   UNL     1       5.436  14.081  18.972  0.00  0.00    +0.021 A 
ENDBRANCH   5  18
TORSDOF 3
ENDMDL
MODEL 3
REMARK VINA RESULT:      -6.3      5.324      8.983
REMARK  Name = 4C02_TAK.pdb
REMARK  3 active torsions:
REMARK  status: ('A' for Active; 'I' for Inactive)
REMARK    1  A    between atoms: _1  and  _7
REMARK    2  A    between atoms: _12  and  _13
REMARK    3  A    between atoms: _18  and  _19
REMARK                            x       y       z     vdW  Elec       q    Type
REMARK                         _______ _______ _______ _____ _____    ______ ____
ROOT
ATOM      1  C   UNL     1       7.022  15.799  19.942  0.00  0.00    +0.038 A 
ATOM      2  C   UNL     1       7.067  15.120  21.173  0.00  0.00    +0.102 A 
ATOM      3  N   UNL     1       7.612  15.678  22.276  0.00  0.00    -0.225 NA
ATOM      4  C   UNL     1       8.179  16.947  22.217  0.00  0.00    +0.165 A 
ATOM      5  C   UNL     1       8.799  17.752  23.209  0.00  0.00    +0.057 A 
ATOM      6  C   UNL     1       9.154  18.912  22.525  0.00  0.00    +0.124 A 
ATOM      7  N   UNL     1       8.775  18.827  21.220  0.00  0.00    -0.162 NA
ATOM      8  N   UNL     1       8.175  17.596  21.075  0.00  0.00    -0.211 N 
ATOM      9  C   UNL     1       7.595  17.071  19.922  0.00  0.00    +0.104 A 
ENDROOT
BRANCH   1  13
ATOM     10  C   UNL     1       5.232  14.075  16.434  0.00  0.00    +0.139 A 
ATOM     11  C   UNL     1       6.063  15.158  16.340  0.00  0.00    +0.037 A 
ATOM     12  C   UNL     1       6.648  15.732  17.480  0.00  0.00    +0.003 A 
ATOM     13  C   UNL     1       6.399  15.220  18.758  0.00  0.00    +0.003 A 
ATOM     14  C   UNL     1       5.579  14.098  18.855  0.00  0.00    +0.003 A 
ATOM     15  C   UNL     1       4.999  13.535  17.722  0.00  0.00    +0.037 A 
BRANCH  10  16
ATOM     16  O   UNL     1       4.659  13.538  15.224  0.00  0.00    -0.471 OA
ATOM     17  C   UNL     1       4.215  14.430  14.229  0.00  0.00    +0.252 C 
ENDBRANCH  10  16
ENDBRANCH   1  13
BRANCH   5  18
ATOM     18  C   UNL     1       9.049  17.511  24.564  0.00  0.00    +0.008 A 
ATOM     19  C   UNL     1       8.097  17.046  25.451  0.00  0.00    +0.021 A 
ATOM     20  C   UNL     1       8.433  16.823  26.779  0.00  0.00    +0.099 A 
ATOM     21  N   UNL     1       9.684  17.037  27.204  0.00  0.00    -0.242 NA
ATOM     22  C   UNL     1      10.644  17.469  26.384  0.00  0.00    +0.099 A 
ATOM     23  C   UNL     1      10.332  17.705  25.055  0.00  0.00    +0.021 A 
ENDBRANCH   5  18
TORSDOF 3
ENDMDL
MODEL 4
REMARK VINA RESULT:      -6.3      5.123     10.735
REMARK  Name = 4C02_TAK.pdb
REMARK  3 active torsions:
REMARK  status: ('A' for Active; 'I' for Inactive)
REMARK    1  A    between atoms: _1  and  _7
REMARK    2  A    between atoms: _12  and  _13
REMARK    3  A    between atoms: _18  and  _19
REMARK                            x       y       z     vdW  Elec       q    Type
REMARK                         _______ _______ _______ _____ _____    ______ ____
ROOT
ATOM      1  C   UNL     1       9.562  16.941  23.577  0.00  0.00    +0.038 A 
ATOM      2  C   UNL     1       9.986  16.765  22.248  0.00  0.00    +0.102 A 
ATOM      3  N   UNL     1       9.110  16.548  21.243  0.00  0.00    -0.225 NA
ATOM      4  C   UNL     1       7.746  16.461  21.503  0.00  0.00    +0.165 A 
ATOM      5  C   UNL     1       6.632  16.251  20.647  0.00  0.00    +0.057 A 
ATOM      6  C   UNL     1       5.540  16.271  21.511  0.00  0.00    +0.124 A 
ATOM      7  N   UNL     1       5.951  16.482  22.791  0.00  0.00    -0.162 NA
ATOM      8  N   UNL     1       7.322  16.596  22.739  0.00  0.00    -0.211 N 
ATOM      9  C   UNL     1       8.188  16.853  23.799  0.00  0.00    +0.104 A 
ENDROOT
BRANCH   1  13
ATOM     10  C   UNL     1      12.313  17.805  26.766  0.00  0.00    +0.139 A 
ATOM     11  C   UNL     1      12.629  18.095  25.466  0.00  0.00    +0.037 A 
ATOM     12  C   UNL     1      11.740  17.811  24.417  0.00  0.00    +0.003 A 
ATOM     13  C   UNL     1      10.498  17.217  24.661  0.00  0.00    +0.003 A 
ATOM     14  C   UNL     1      10.159  16.950  25.986  0.00  0.00    +0.003 A 
ATOM     15  C   UNL     1      11.045  17.230  27.022  0.00  0.00    +0.037 A 
BRANCH  10  16
ATOM     16  O   UNL     1      13.275  18.117  27.796  0.00  0.00    -0.471 OA
ATOM     17  C   UNL     1      13.495  17.181  28.824  0.00  0.00    +0.252 C 
ENDBRANCH  10  16
ENDBRANCH   1  13
BRANCH   5  18
ATOM     18  C   UNL     1       6.560  16.049  19.266  0.00  0.00    +0.008 A 
ATOM     19  C   UNL     1       6.068  14.899  18.680  0.00  0.00    +0.021 A 
ATOM     20  C   UNL     1       6.022  14.786  17.297  0.00  0.00    +0.099 A 
ATOM     21  N   UNL     1       6.435  15.797  16.523  0.00  0.00    -0.242 NA
ATOM     22  C   UNL     1       6.902  16.935  17.039  0.00  0.00    +0.099 A 
ATOM     23  C   UNL     1       6.964  17.070  18.417  0.00  0.00    +0.021 A 
ENDBRANCH   5  18
TORSDOF 3
ENDMDL
MODEL 5
REMARK VINA RESULT:      -6.3      3.672      8.732
REMARK  Name = 4C02_TAK.pdb
REMARK  3 active torsions:
REMARK  status: ('A' for Active; 'I' for Inactive)
REMARK    1  A    between atoms: _1  and  _7
REMARK    2  A    between atoms: _12  and  _13
REMARK    3  A    between atoms: _18  and  _19
REMARK                            x       y       z     vdW  Elec       q    Type
REMARK                         _______ _______ _______ _____ _____    ______ ____
ROOT
ATOM      1  C   UNL     1      13.640  17.062  29.278  0.00  0.00    +0.038 A 
ATOM      2  C   UNL     1      12.439  16.345  29.133  0.00  0.00    +0.102 A 
ATOM      3  N   UNL     1      11.737  16.356  27.979  0.00  0.00    -0.225 NA
ATOM      4  C   UNL     1      12.174  17.112  26.896  0.00  0.00    +0.165 A 
ATOM      5  C   UNL     1      11.639  17.291  25.592  0.00  0.00    +0.057 A 
ATOM      6  C   UNL     1      12.537  18.162  24.980  0.00  0.00    +0.124 A 
ATOM      7  N   UNL     1      13.544  18.485  25.838  0.00  0.00    -0.162 NA
ATOM      8  N   UNL     1      13.279  17.812  27.009  0.00  0.00    -0.211 N 
ATOM      9  C   UNL     1      14.050  17.803  28.169  0.00  0.00    +0.104 A 
ENDROOT
BRANCH   1  13
ATOM     10  C   UNL     1      15.993  16.972  32.875  0.00  0.00    +0.139 A 
ATOM     11  C   UNL     1      16.361  16.245  31.775  0.00  0.00    +0.037 A 
ATOM     12  C   UNL     1      15.597  16.263  30.598  0.00  0.00    +0.003 A 
ATOM     13  C   UNL     1      14.425  17.022  30.506  0.00  0.00    +0.003 A 
ATOM     14  C   UNL     1      14.064  17.788  31.613  0.00  0.00    +0.003 A 
ATOM     15  C   UNL     1      14.824  17.764  32.779  0.00  0.00    +0.037 A 
BRANCH  10  16
ATOM     16  O   UNL     1      16.821  16.904  34.055  0.00  0.00    -0.471 OA
ATOM     17  C   UNL     1      16.557  17.785  35.121  0.00  0.00    +0.252 C 
ENDBRANCH  10  16
ENDBRANCH   1  13
BRANCH   5  18
ATOM     18  C   UNL     1      10.490  16.770  24.991  0.00  0.00    +0.008 A 
ATOM     19  C   UNL     1      10.477  15.627  24.214  0.00  0.00    +0.021 A 
ATOM     20  C   UNL     1       9.287  15.172  23.663  0.00  0.00    +0.099 A 
ATOM     21  N   UNL     1       8.142  15.825  23.896  0.00  0.00    -0.242 NA
ATOM     22  C   UNL     1       8.098  16.923  24.653  0.00  0.00    +0.099 A 
ATOM     23  C   UNL     1       9.274  17.401  25.209  0.00  0.00    +0.021 A 
ENDBRANCH   5  18
TORSDOF 3
ENDMDL
MODEL 6
REMARK VINA RESULT:      -6.2      3.595      8.540
REMARK  Name = 4C02_TAK.pdb
REMARK  3 active torsions:
REMARK  status: ('A' for Active; 'I' for Inactive)
REMARK    1  A    between atoms: _1  and  _7
REMARK    2  A    between atoms: _12  and  _13
REMARK    3  A    between atoms: _18  and  _19
REMARK                            x       y       z     vdW  Elec       q    Type
REMARK                         _______ _______ _______ _____ _____    ______ ____
ROOT
ATOM      1  C   UNL     1      13.639  16.558  29.873  0.00  0.00    +0.038 A 
ATOM      2  C   UNL     1      12.708  17.466  29.340  0.00  0.00    +0.102 A 
ATOM      3  N   UNL     1      11.860  17.118  28.347  0.00  0.00    -0.225 NA
ATOM      4  C   UNL     1      11.906  15.842  27.796  0.00  0.00    +0.165 A 
ATOM      5  C   UNL     1      11.139  15.227  26.770  0.00  0.00    +0.057 A 
ATOM      6  C   UNL     1      11.667  13.941  26.685  0.00  0.00    +0.124 A 
ATOM      7  N   UNL     1      12.671  13.779  27.590  0.00  0.00    -0.162 NA
ATOM      8  N   UNL     1      12.782  14.979  28.256  0.00  0.00    -0.211 N 
ATOM      9  C   UNL     1      13.652  15.286  29.300  0.00  0.00    +0.104 A 
ENDROOT
BRANCH   1  13
ATOM     10  C   UNL     1      16.233  17.577  33.146  0.00  0.00    +0.139 A 
ATOM     11  C   UNL     1      14.971  18.101  33.059  0.00  0.00    +0.037 A 
ATOM     12  C   UNL     1      14.119  17.778  31.991  0.00  0.00    +0.003 A 
ATOM     13  C   UNL     1      14.529  16.913  30.972  0.00  0.00    +0.003 A 
ATOM     14  C   UNL     1      15.801  16.353  31.074  0.00  0.00    +0.003 A 
ATOM     15  C   UNL     1      16.644  16.678  32.133  0.00  0.00    +0.037 A 
BRANCH  10  16
ATOM     16  O   UNL     1      17.060  17.954  34.267  0.00  0.00    -0.471 OA
ATOM     17  C   UNL     1      16.551  17.795  35.570  0.00  0.00    +0.252 C 
ENDBRANCH  10  16
ENDBRANCH   1  13
BRANCH   5  18
ATOM     18  C   UNL     1      10.101  15.723  25.977  0.00  0.00    +0.008 A 
ATOM     19  C   UNL     1       9.080  16.522  26.455  0.00  0.00    +0.021 A 
ATOM     20  C   UNL     1       8.093  16.982  25.595  0.00  0.00    +0.099 A 
ATOM     21  N   UNL     1       8.133  16.670  24.293  0.00  0.00    -0.242 NA
ATOM     22  C   UNL     1       9.106  15.917  23.778  0.00  0.00    +0.099 A 
ATOM     23  C   UNL     1      10.100  15.440  24.619  0.00  0.00    +0.021 A 
ENDBRANCH   5  18
TORSDOF 3
ENDMDL
MODEL 7
REMARK VINA RESULT:      -6.1      4.061      9.641
REMARK  Name = 4C02_TAK.pdb
REMARK  3 active torsions:
REMARK  status: ('A' for Active; 'I' for Inactive)
REMARK    1  A    between atoms: _1  and  _7
REMARK    2  A    between atoms: _12  and  _13
REMARK    3  A    between atoms: _18  and  _19
REMARK                            x       y       z     vdW  Elec       q    Type
REMARK                         _______ _______ _______ _____ _____    ______ ____
ROOT
ATOM      1  C   UNL     1      10.335  16.566  25.997  0.00  0.00    +0.038 A 
ATOM      2  C   UNL     1       9.490  15.529  25.565  0.00  0.00    +0.102 A 
ATOM      3  N   UNL     1       8.715  15.653  24.465  0.00  0.00    -0.225 NA
ATOM      4  C   UNL     1       8.708  16.838  23.737  0.00  0.00    +0.165 A 
ATOM      5  C   UNL     1       8.006  17.222  22.563  0.00  0.00    +0.057 A 
ATOM      6  C   UNL     1       8.431  18.528  22.333  0.00  0.00    +0.124 A 
ATOM      7  N   UNL     1       9.326  18.911  23.286  0.00  0.00    -0.162 NA
ATOM      8  N   UNL     1       9.468  17.834  24.131  0.00  0.00    -0.211 N 
ATOM      9  C   UNL     1      10.307  17.738  25.240  0.00  0.00    +0.104 A 
ENDROOT
BRANCH   1  13
ATOM     10  C   UNL     1      12.942  16.138  29.389  0.00  0.00    +0.139 A 
ATOM     11  C   UNL     1      12.510  15.043  28.691  0.00  0.00    +0.037 A 
ATOM     12  C   UNL     1      11.654  15.172  27.586  0.00  0.00    +0.003 A 
ATOM     13  C   UNL     1      11.206  16.426  27.158  0.00  0.00    +0.003 A 
ATOM     14  C   UNL     1      11.669  17.546  27.847  0.00  0.00    +0.003 A 
ATOM     15  C   UNL     1      12.515  17.412  28.944  0.00  0.00    +0.037 A 
BRANCH  10  16
ATOM     16  O   UNL     1      13.815  15.935  30.520  0.00  0.00    -0.471 OA
ATOM     17  C   UNL     1      14.518  17.038  31.041  0.00  0.00    +0.252 C 
ENDBRANCH  10  16
ENDBRANCH   1  13
BRANCH   5  18
ATOM     18  C   UNL     1       7.084  16.527  21.776  0.00  0.00    +0.008 A 
ATOM     19  C   UNL     1       5.795  16.232  22.178  0.00  0.00    +0.021 A 
ATOM     20  C   UNL     1       4.940  15.546  21.327  0.00  0.00    +0.099 A 
ATOM     21  N   UNL     1       5.350  15.184  20.105  0.00  0.00    -0.242 NA
ATOM     22  C   UNL     1       6.578  15.461  19.663  0.00  0.00    +0.099 A 
ATOM     23  C   UNL     1       7.453  16.139  20.496  0.00  0.00    +0.021 A 
ENDBRANCH   5  18
TORSDOF 3
ENDMDL
MODEL 8
REMARK VINA RESULT:      -6.1      3.108      5.750
REMARK  Name = 4C02_TAK.pdb
REMARK  3 active torsions:
REMARK  status: ('A' for Active; 'I' for Inactive)
REMARK    1  A    between atoms: _1  and  _7
REMARK    2  A    between atoms: _12  and  _13
REMARK    3  A    between atoms: _18  and  _19
REMARK                            x       y       z     vdW  Elec       q    Type
REMARK                         _______ _______ _______ _____ _____    ______ ____
ROOT
ATOM      1  C   UNL     1       7.914  16.001  23.457  0.00  0.00    +0.038 A 
ATOM      2  C   UNL     1       8.469  15.251  24.509  0.00  0.00    +0.102 A 
ATOM      3  N   UNL     1       9.472  15.733  25.276  0.00  0.00    -0.225 NA
ATOM      4  C   UNL     1      10.011  16.990  25.023  0.00  0.00    +0.165 A 
ATOM      5  C   UNL     1      11.043  17.723  25.667  0.00  0.00    +0.057 A 
ATOM      6  C   UNL     1      11.109  18.912  24.945  0.00  0.00    +0.124 A 
ATOM      7  N   UNL     1      10.187  18.910  23.943  0.00  0.00    -0.162 NA
ATOM      8  N   UNL     1       9.530  17.704  24.031  0.00  0.00    -0.211 N 
ATOM      9  C   UNL     1       8.475  17.259  23.236  0.00  0.00    +0.104 A 
ENDROOT
BRANCH   1  13
ATOM     10  C   UNL     1       4.617  14.524  21.126  0.00  0.00    +0.139 A 
ATOM     11  C   UNL     1       5.462  13.664  21.774  0.00  0.00    +0.037 A 
ATOM     12  C   UNL     1       6.545  14.136  22.533  0.00  0.00    +0.003 A 
ATOM     13  C   UNL     1       6.804  15.505  22.652  0.00  0.00    +0.003 A 
ATOM     14  C   UNL     1       5.927  16.385  22.020  0.00  0.00    +0.003 A 
ATOM     15  C   UNL     1       4.857  15.912  21.266  0.00  0.00    +0.037 A 
BRANCH  10  16
ATOM     16  O   UNL     1       3.527  13.973  20.358  0.00  0.00    -0.471 OA
ATOM     17  C   UNL     1       3.700  12.721  19.737  0.00  0.00    +0.252 C 
ENDBRANCH  10  16
ENDBRANCH   1  13
BRANCH   5  18
ATOM     18  C   UNL     1      11.857  17.399  26.757  0.00  0.00    +0.008 A 
ATOM     19  C   UNL     1      11.571  16.392  27.659  0.00  0.00    +0.021 A 
ATOM     20  C   UNL     1      12.441  16.130  28.709  0.00  0.00    +0.099 A 
ATOM     21  N   UNL     1      13.571  16.836  28.842  0.00  0.00    -0.242 NA
ATOM     22  C   UNL     1      13.901  17.806  27.988  0.00  0.00    +0.099 A 
ATOM     23  C   UNL     1      13.045  18.092  26.936  0.00  0.00    +0.021 A 
ENDBRANCH   5  18
TORSDOF 3
ENDMDL
MODEL 9
REMARK VINA RESULT:      -6.0      3.722      9.122
REMARK  Name = 4C02_TAK.pdb
REMARK  3 active torsions:
REMARK  status: ('A' for Active; 'I' for Inactive)
REMARK    1  A    between atoms: _1  and  _7
REMARK    2  A    between atoms: _12  and  _13
REMARK    3  A    between atoms: _18  and  _19
REMARK                            x       y       z     vdW  Elec       q    Type
REMARK                         _______ _______ _______ _____ _____    ______ ____
ROOT
ATOM      1  C   UNL     1      11.462  16.358  27.087  0.00  0.00    +0.038 A 
ATOM      2  C   UNL     1      10.538  15.364  26.719  0.00  0.00    +0.102 A 
ATOM      3  N   UNL     1       9.675  15.538  25.694  0.00  0.00    -0.225 NA
ATOM      4  C   UNL     1       9.656  16.733  24.983  0.00  0.00    +0.165 A 
ATOM      5  C   UNL     1       8.871  17.164  23.880  0.00  0.00    +0.057 A 
ATOM      6  C   UNL     1       9.331  18.454  23.628  0.00  0.00    +0.124 A 
ATOM      7  N   UNL     1      10.321  18.784  24.502  0.00  0.00    -0.162 NA
ATOM      8  N   UNL     1      10.490  17.690  25.319  0.00  0.00    -0.211 N 
ATOM      9  C   UNL     1      11.418  17.541  26.348  0.00  0.00    +0.104 A 
ENDROOT
BRANCH   1  13
ATOM     10  C   UNL     1      14.261  15.792  30.301  0.00  0.00    +0.139 A 
ATOM     11  C   UNL     1      13.734  17.027  30.036  0.00  0.00    +0.037 A 
ATOM     12  C   UNL     1      12.824  17.224  28.985  0.00  0.00    +0.003 A 
ATOM     13  C   UNL     1      12.424  16.164  28.165  0.00  0.00    +0.003 A 
ATOM     14  C   UNL     1      12.934  14.898  28.451  0.00  0.00    +0.003 A 
ATOM     15  C   UNL     1      13.839  14.710  29.492  0.00  0.00    +0.037 A 
BRANCH  10  16
ATOM     16  O   UNL     1      15.197  15.661  31.391  0.00  0.00    -0.471 OA
ATOM     17  C   UNL     1      15.503  16.798  32.163  0.00  0.00    +0.252 C 
ENDBRANCH  10  16
ENDBRANCH   1  13
BRANCH   5  18
ATOM     18  C   UNL     1       7.854  16.521  23.169  0.00  0.00    +0.008 A 
ATOM     19  C   UNL     1       8.007  15.299  22.541  0.00  0.00    +0.021 A 
ATOM     20  C   UNL     1       6.939  14.725  21.864  0.00  0.00    +0.099 A 
ATOM     21  N   UNL     1       5.750  15.340  21.833  0.00  0.00    -0.242 NA
ATOM     22  C   UNL     1       5.546  16.512  22.438  0.00  0.00    +0.099 A 
ATOM     23  C   UNL     1       6.599  17.109  23.114  0.00  0.00    +0.021 A 
ENDBRANCH   5  18
TORSDOF 3
ENDMDL
