MODEL 1
REMARK VINA RESULT:      -8.7      0.000      0.000
REMARK  Name = 6I1S_E26.pdb
REMARK  8 active torsions:
REMARK  status: ('A' for Active; 'I' for Inactive)
REMARK    1  A    between atoms: _1  and  _2
REMARK    2  A    between atoms: _2  and  _3
REMARK    3  A    between atoms: _3  and  _4
REMARK    4  A    between atoms: _10  and  _28
REMARK    5  A    between atoms: _11  and  _27
REMARK    6  A    between atoms: _15  and  _16
REMARK    7  A    between atoms: _17  and  _18
REMARK    8  A    between atoms: _22  and  _24
REMARK                            x       y       z     vdW  Elec       q    Type
REMARK                         _______ _______ _______ _____ _____    ______ ____
ROOT
ATOM      1  C   UNL     1       6.826  17.717  16.451  0.00  0.00    +0.031 A 
ATOM      2  C   UNL     1       6.665  18.482  17.601  0.00  0.00    +0.069 A 
ATOM      3  C   UNL     1       6.473  19.850  17.471  0.00  0.00    +0.133 A 
ATOM      4  C   UNL     1       6.451  20.464  16.210  0.00  0.00    +0.107 A 
ATOM      5  C   UNL     1       6.245  21.980  16.177  0.00  0.00    +0.344 C 
ATOM      6  O   UNL     1       6.052  22.612  17.168  0.00  0.00    -0.245 OA
ATOM      7  O   UNL     1       6.336  22.628  14.938  0.00  0.00    -0.457 OA
ATOM      8  C   UNL     1       6.168  24.038  14.925  0.00  0.00    +0.180 C 
ATOM      9  C   UNL     1       7.452  24.766  15.214  0.00  0.00    +0.052 C 
ATOM     10  C   UNL     1       5.628  24.333  13.516  0.00  0.00    +0.049 C 
ATOM     11  C   UNL     1       5.378  25.825  13.323  0.00  0.00    +0.015 C 
ATOM     12  C   UNL     1       4.325  23.546  13.311  0.00  0.00    -0.017 C 
ATOM     13  C   UNL     1       3.983  22.915  12.186  0.00  0.00    +0.045 C 
ATOM     14  C   UNL     1       4.847  22.786  10.923  0.00  0.00    +0.187 C 
ATOM     15  O   UNL     1       5.803  23.455  10.687  0.00  0.00    -0.290 OA
ATOM     16  C   UNL     1       4.484  21.578  10.018  0.00  0.00    +0.213 C 
ATOM     17  C   UNL     1       4.697  20.307  10.867  0.00  0.00    +0.154 C 
ATOM     18  C   UNL     1       6.167  19.980  11.166  0.00  0.00    +0.061 C 
ATOM     19  C   UNL     1       6.258  19.432  12.600  0.00  0.00    -0.024 C 
ATOM     20  C   UNL     1       6.579  20.230  13.622  0.00  0.00    +0.005 C 
ATOM     21  C   UNL     1       6.618  19.673  15.052  0.00  0.00    -0.006 A 
ATOM     22  C   UNL     1       6.796  18.312  15.197  0.00  0.00    +0.032 A 
ENDROOT
BRANCH   1  23
ATOM     23  N   UNL     1       7.022  16.287  16.547  0.00  0.00    -0.344 N 
ATOM     24  H   UNL     1       7.357  15.844  15.880  0.00  0.00    +0.146 HD
BRANCH  23  26
ATOM     25  C   UNL     1       5.750  14.421  17.390  0.00  0.00    +0.024 C 
ATOM     26  C   UNL     1       6.652  15.600  17.772  0.00  0.00    +0.098 C 
ENDBRANCH  23  26
ENDBRANCH   1  23
BRANCH   3  27
ATOM     27  O   UNL     1       6.313  20.639  18.613  0.00  0.00    -0.506 OA
ATOM     28  H   UNL     1       6.103  20.145  19.272  0.00  0.00    +0.292 HD
ENDBRANCH   3  27
BRANCH  16  29
ATOM     29  O   UNL     1       5.257  21.582   8.881  0.00  0.00    -0.381 OA
ATOM     30  H   UNL     1       5.779  22.253   8.894  0.00  0.00    +0.210 HD
ENDBRANCH  16  29
BRANCH  17  31
ATOM     31  O   UNL     1       4.136  19.201  10.220  0.00  0.00    -0.388 OA
ATOM     32  H   UNL     1       3.885  18.632  10.799  0.00  0.00    +0.210 HD
ENDBRANCH  17  31
TORSDOF 5
ENDMDL
MODEL 2
REMARK VINA RESULT:      -8.6      2.804      6.237
REMARK  Name = 6I1S_E26.pdb
REMARK  8 active torsions:
REMARK  status: ('A' for Active; 'I' for Inactive)
REMARK    1  A    between atoms: _1  and  _2
REMARK    2  A    between atoms: _2  and  _3
REMARK    3  A    between atoms: _3  and  _4
REMARK    4  A    between atoms: _10  and  _28
REMARK    5  A    between atoms: _11  and  _27
REMARK    6  A    between atoms: _15  and  _16
REMARK    7  A    between atoms: _17  and  _18
REMARK    8  A    between atoms: _22  and  _24
REMARK                            x       y       z     vdW  Elec       q    Type
REMARK                         _______ _______ _______ _____ _____    ______ ____
ROOT
ATOM      1  C   UNL     1       6.085  19.820  12.136  0.00  0.00    +0.031 A 
ATOM      2  C   UNL     1       6.469  20.724  11.152  0.00  0.00    +0.069 A 
ATOM      3  C   UNL     1       6.688  22.046  11.510  0.00  0.00    +0.133 A 
ATOM      4  C   UNL     1       6.516  22.479  12.833  0.00  0.00    +0.107 A 
ATOM      5  C   UNL     1       6.772  23.961  13.121  0.00  0.00    +0.344 C 
ATOM      6  O   UNL     1       7.156  24.709  12.278  0.00  0.00    -0.245 OA
ATOM      7  O   UNL     1       6.493  24.436  14.409  0.00  0.00    -0.457 OA
ATOM      8  C   UNL     1       6.711  25.818  14.656  0.00  0.00    +0.180 C 
ATOM      9  C   UNL     1       5.524  26.657  14.268  0.00  0.00    +0.052 C 
ATOM     10  C   UNL     1       7.011  25.882  16.162  0.00  0.00    +0.049 C 
ATOM     11  C   UNL     1       7.281  27.316  16.609  0.00  0.00    +0.015 C 
ATOM     12  C   UNL     1       8.229  24.995  16.461  0.00  0.00    -0.017 C 
ATOM     13  C   UNL     1       8.348  24.195  17.523  0.00  0.00    +0.045 C 
ATOM     14  C   UNL     1       7.275  23.948  18.594  0.00  0.00    +0.187 C 
ATOM     15  O   UNL     1       6.319  24.637  18.765  0.00  0.00    -0.290 OA
ATOM     16  C   UNL     1       7.432  22.607  19.360  0.00  0.00    +0.213 C 
ATOM     17  C   UNL     1       7.320  21.480  18.311  0.00  0.00    +0.154 C 
ATOM     18  C   UNL     1       5.912  21.289  17.730  0.00  0.00    +0.061 C 
ATOM     19  C   UNL     1       6.048  20.950  16.236  0.00  0.00    -0.024 C 
ATOM     20  C   UNL     1       5.937  21.900  15.303  0.00  0.00    +0.005 C 
ATOM     21  C   UNL     1       6.124  21.549  13.820  0.00  0.00    -0.006 A 
ATOM     22  C   UNL     1       5.921  20.234  13.451  0.00  0.00    +0.032 A 
ENDROOT
BRANCH   1  23
ATOM     23  N   UNL     1       5.854  18.432  11.801  0.00  0.00    -0.344 N 
ATOM     24  H   UNL     1       6.319  17.805  12.183  0.00  0.00    +0.146 HD
BRANCH  23  26
ATOM     25  C   UNL     1       4.482  16.617  11.003  0.00  0.00    +0.024 C 
ATOM     26  C   UNL     1       4.837  18.097  10.821  0.00  0.00    +0.098 C 
ENDBRANCH  23  26
ENDBRANCH   1  23
BRANCH   3  27
ATOM     27  O   UNL     1       7.072  22.974  10.538  0.00  0.00    -0.506 OA
ATOM     28  H   UNL     1       6.792  22.719   9.777  0.00  0.00    +0.292 HD
ENDBRANCH   3  27
BRANCH  16  29
ATOM     29  O   UNL     1       6.475  22.503  20.343  0.00  0.00    -0.381 OA
ATOM     30  H   UNL     1       6.827  22.191  21.051  0.00  0.00    +0.210 HD
ENDBRANCH  16  29
BRANCH  17  31
ATOM     31  O   UNL     1       7.719  20.264  18.874  0.00  0.00    -0.388 OA
ATOM     32  H   UNL     1       7.398  19.622  18.417  0.00  0.00    +0.210 HD
ENDBRANCH  17  31
TORSDOF 5
ENDMDL
MODEL 3
REMARK VINA RESULT:      -8.5      9.708     12.048
REMARK  Name = 6I1S_E26.pdb
REMARK  8 active torsions:
REMARK  status: ('A' for Active; 'I' for Inactive)
REMARK    1  A    between atoms: _1  and  _2
REMARK    2  A    between atoms: _2  and  _3
REMARK    3  A    between atoms: _3  and  _4
REMARK    4  A    between atoms: _10  and  _28
REMARK    5  A    between atoms: _11  and  _27
REMARK    6  A    between atoms: _15  and  _16
REMARK    7  A    between atoms: _17  and  _18
REMARK    8  A    between atoms: _22  and  _24
REMARK                            x       y       z     vdW  Elec       q    Type
REMARK                         _______ _______ _______ _____ _____    ______ ____
ROOT
ATOM      1  C   UNL     1      13.184  21.486  25.175  0.00  0.00    +0.031 A 
ATOM      2  C   UNL     1      11.934  21.078  24.723  0.00  0.00    +0.069 A 
ATOM      3  C   UNL     1      11.588  21.325  23.403  0.00  0.00    +0.133 A 
ATOM      4  C   UNL     1      12.468  21.984  22.532  0.00  0.00    +0.107 A 
ATOM      5  C   UNL     1      11.985  22.218  21.099  0.00  0.00    +0.344 C 
ATOM      6  O   UNL     1      10.935  21.811  20.713  0.00  0.00    -0.245 OA
ATOM      7  O   UNL     1      12.800  22.976  20.247  0.00  0.00    -0.457 OA
ATOM      8  C   UNL     1      12.329  23.207  18.928  0.00  0.00    +0.180 C 
ATOM      9  C   UNL     1      11.419  24.403  18.852  0.00  0.00    +0.052 C 
ATOM     10  C   UNL     1      13.613  23.390  18.103  0.00  0.00    +0.049 C 
ATOM     11  C   UNL     1      13.292  23.645  16.634  0.00  0.00    +0.015 C 
ATOM     12  C   UNL     1      14.476  22.127  18.246  0.00  0.00    -0.017 C 
ATOM     13  C   UNL     1      15.803  22.122  18.391  0.00  0.00    +0.045 C 
ATOM     14  C   UNL     1      16.704  23.360  18.521  0.00  0.00    +0.187 C 
ATOM     15  O   UNL     1      16.374  24.468  18.238  0.00  0.00    -0.290 OA
ATOM     16  C   UNL     1      18.061  23.093  19.225  0.00  0.00    +0.213 C 
ATOM     17  C   UNL     1      17.734  22.595  20.649  0.00  0.00    +0.154 C 
ATOM     18  C   UNL     1      17.160  23.670  21.582  0.00  0.00    +0.061 C 
ATOM     19  C   UNL     1      16.082  23.018  22.464  0.00  0.00    -0.024 C 
ATOM     20  C   UNL     1      14.789  23.092  22.138  0.00  0.00    +0.005 C 
ATOM     21  C   UNL     1      13.733  22.394  23.006  0.00  0.00    -0.006 A 
ATOM     22  C   UNL     1      14.068  22.130  24.319  0.00  0.00    +0.032 A 
ENDROOT
BRANCH   1  23
ATOM     23  N   UNL     1      13.582  21.240  26.544  0.00  0.00    -0.344 N 
ATOM     24  H   UNL     1      13.079  21.503  27.201  0.00  0.00    +0.146 HD
BRANCH  23  26
ATOM     25  C   UNL     1      14.580  19.046  26.611  0.00  0.00    +0.024 C 
ATOM     26  C   UNL     1      14.830  20.546  26.806  0.00  0.00    +0.098 C 
ENDBRANCH  23  26
ENDBRANCH   1  23
BRANCH   3  27
ATOM     27  O   UNL     1      10.335  20.927  22.928  0.00  0.00    -0.506 OA
ATOM     28  H   UNL     1      10.062  21.484  22.348  0.00  0.00    +0.292 HD
ENDBRANCH   3  27
BRANCH  16  29
ATOM     29  O   UNL     1      18.828  24.234  19.233  0.00  0.00    -0.381 OA
ATOM     30  H   UNL     1      19.251  24.299  18.499  0.00  0.00    +0.210 HD
ENDBRANCH  16  29
BRANCH  17  31
ATOM     31  O   UNL     1      18.886  22.078  21.250  0.00  0.00    -0.388 OA
ATOM     32  H   UNL     1      18.674  21.685  21.973  0.00  0.00    +0.210 HD
ENDBRANCH  17  31
TORSDOF 5
ENDMDL
MODEL 4
REMARK VINA RESULT:      -8.1      6.004      7.306
REMARK  Name = 6I1S_E26.pdb
REMARK  8 active torsions:
REMARK  status: ('A' for Active; 'I' for Inactive)
REMARK    1  A    between atoms: _1  and  _2
REMARK    2  A    between atoms: _2  and  _3
REMARK    3  A    between atoms: _3  and  _4
REMARK    4  A    between atoms: _10  and  _28
REMARK    5  A    between atoms: _11  and  _27
REMARK    6  A    between atoms: _15  and  _16
REMARK    7  A    between atoms: _17  and  _18
REMARK    8  A    between atoms: _22  and  _24
REMARK                            x       y       z     vdW  Elec       q    Type
REMARK                         _______ _______ _______ _____ _____    ______ ____
ROOT
ATOM      1  C   UNL     1      11.976  21.548  20.385  0.00  0.00    +0.031 A 
ATOM      2  C   UNL     1      11.128  20.894  21.270  0.00  0.00    +0.069 A 
ATOM      3  C   UNL     1       9.823  21.346  21.402  0.00  0.00    +0.133 A 
ATOM      4  C   UNL     1       9.360  22.449  20.670  0.00  0.00    +0.107 A 
ATOM      5  C   UNL     1       7.907  22.875  20.897  0.00  0.00    +0.344 C 
ATOM      6  O   UNL     1       7.177  22.269  21.616  0.00  0.00    -0.245 OA
ATOM      7  O   UNL     1       7.459  24.043  20.265  0.00  0.00    -0.457 OA
ATOM      8  C   UNL     1       6.117  24.441  20.504  0.00  0.00    +0.180 C 
ATOM      9  C   UNL     1       5.984  25.264  21.756  0.00  0.00    +0.052 C 
ATOM     10  C   UNL     1       5.733  25.225  19.239  0.00  0.00    +0.049 C 
ATOM     11  C   UNL     1       4.296  25.731  19.319  0.00  0.00    +0.015 C 
ATOM     12  C   UNL     1       5.906  24.309  18.018  0.00  0.00    -0.017 C 
ATOM     13  C   UNL     1       6.418  24.689  16.845  0.00  0.00    +0.045 C 
ATOM     14  C   UNL     1       7.001  26.072  16.518  0.00  0.00    +0.187 C 
ATOM     15  O   UNL     1       6.823  27.052  17.169  0.00  0.00    -0.290 OA
ATOM     16  C   UNL     1       8.008  26.079  15.336  0.00  0.00    +0.213 C 
ATOM     17  C   UNL     1       9.178  25.158  15.742  0.00  0.00    +0.154 C 
ATOM     18  C   UNL     1      10.073  25.720  16.855  0.00  0.00    +0.061 C 
ATOM     19  C   UNL     1      10.493  24.557  17.770  0.00  0.00    -0.024 C 
ATOM     20  C   UNL     1       9.829  24.298  18.900  0.00  0.00    +0.005 C 
ATOM     21  C   UNL     1      10.234  23.104  19.776  0.00  0.00    -0.006 A 
ATOM     22  C   UNL     1      11.526  22.635  19.647  0.00  0.00    +0.032 A 
ENDROOT
BRANCH   1  23
ATOM     23  N   UNL     1      13.342  21.100  20.217  0.00  0.00    -0.344 N 
ATOM     24  H   UNL     1      13.543  20.260  20.308  0.00  0.00    +0.146 HD
BRANCH  23  26
ATOM     25  C   UNL     1      14.966  21.682  18.534  0.00  0.00    +0.024 C 
ATOM     26  C   UNL     1      14.372  22.070  19.893  0.00  0.00    +0.098 C 
ENDBRANCH  23  26
ENDBRANCH   1  23
BRANCH   3  27
ATOM     27  O   UNL     1       8.953  20.706  22.288  0.00  0.00    -0.506 OA
ATOM     28  H   UNL     1       8.749  19.940  21.982  0.00  0.00    +0.292 HD
ENDBRANCH   3  27
BRANCH  16  29
ATOM     29  O   UNL     1       8.422  27.363  15.069  0.00  0.00    -0.381 OA
ATOM     30  H   UNL     1       9.235  27.354  14.820  0.00  0.00    +0.210 HD
ENDBRANCH  16  29
BRANCH  17  31
ATOM     31  O   UNL     1       9.987  24.897  14.632  0.00  0.00    -0.388 OA
ATOM     32  H   UNL     1       9.546  25.042  13.920  0.00  0.00    +0.210 HD
ENDBRANCH  17  31
TORSDOF 5
ENDMDL
MODEL 5
REMARK VINA RESULT:      -8.1      9.317     12.210
REMARK  Name = 6I1S_E26.pdb
REMARK  8 active torsions:
REMARK  status: ('A' for Active; 'I' for Inactive)
REMARK    1  A    between atoms: _1  and  _2
REMARK    2  A    between atoms: _2  and  _3
REMARK    3  A    between atoms: _3  and  _4
REMARK    4  A    between atoms: _10  and  _28
REMARK    5  A    between atoms: _11  and  _27
REMARK    6  A    between atoms: _15  and  _16
REMARK    7  A    between atoms: _17  and  _18
REMARK    8  A    between atoms: _22  and  _24
REMARK                            x       y       z     vdW  Elec       q    Type
REMARK                         _______ _______ _______ _____ _____    ______ ____
ROOT
ATOM      1  C   UNL     1      12.985  22.693  19.812  0.00  0.00    +0.031 A 
ATOM      2  C   UNL     1      13.943  23.274  20.634  0.00  0.00    +0.069 A 
ATOM      3  C   UNL     1      13.950  22.950  21.983  0.00  0.00    +0.133 A 
ATOM      4  C   UNL     1      13.006  22.064  22.522  0.00  0.00    +0.107 A 
ATOM      5  C   UNL     1      13.093  21.783  24.024  0.00  0.00    +0.344 C 
ATOM      6  O   UNL     1      13.956  22.244  24.703  0.00  0.00    -0.245 OA
ATOM      7  O   UNL     1      12.090  20.995  24.603  0.00  0.00    -0.457 OA
ATOM      8  C   UNL     1      12.169  20.762  26.002  0.00  0.00    +0.180 C 
ATOM      9  C   UNL     1      11.530  21.867  26.798  0.00  0.00    +0.052 C 
ATOM     10  C   UNL     1      11.459  19.412  26.193  0.00  0.00    +0.049 C 
ATOM     11  C   UNL     1      11.454  18.995  27.661  0.00  0.00    +0.015 C 
ATOM     12  C   UNL     1      12.175  18.353  25.342  0.00  0.00    -0.017 C 
ATOM     13  C   UNL     1      11.563  17.401  24.634  0.00  0.00    +0.045 C 
ATOM     14  C   UNL     1      10.045  17.231  24.469  0.00  0.00    +0.187 C 
ATOM     15  O   UNL     1       9.228  17.749  25.163  0.00  0.00    -0.290 OA
ATOM     16  C   UNL     1       9.623  16.448  23.198  0.00  0.00    +0.213 C 
ATOM     17  C   UNL     1      10.142  17.252  21.987  0.00  0.00    +0.154 C 
ATOM     18  C   UNL     1       9.404  18.575  21.739  0.00  0.00    +0.061 C 
ATOM     19  C   UNL     1      10.433  19.622  21.278  0.00  0.00    -0.024 C 
ATOM     20  C   UNL     1      10.978  20.479  22.146  0.00  0.00    +0.005 C 
ATOM     21  C   UNL     1      12.038  21.484  21.674  0.00  0.00    -0.006 A 
ATOM     22  C   UNL     1      12.051  21.807  20.332  0.00  0.00    +0.032 A 
ENDROOT
BRANCH   1  23
ATOM     23  N   UNL     1      12.951  23.002  18.399  0.00  0.00    -0.344 N 
ATOM     24  H   UNL     1      12.200  22.981  17.963  0.00  0.00    +0.146 HD
BRANCH  23  26
ATOM     25  C   UNL     1      14.885  22.040  17.328  0.00  0.00    +0.024 C 
ATOM     26  C   UNL     1      14.186  23.348  17.717  0.00  0.00    +0.098 C 
ENDBRANCH  23  26
ENDBRANCH   1  23
BRANCH   3  27
ATOM     27  O   UNL     1      14.903  23.524  22.829  0.00  0.00    -0.506 OA
ATOM     28  H   UNL     1      14.770  23.261  23.625  0.00  0.00    +0.292 HD
ENDBRANCH   3  27
BRANCH  16  29
ATOM     29  O   UNL     1       8.257  16.283  23.169  0.00  0.00    -0.381 OA
ATOM     30  H   UNL     1       7.969  16.436  22.384  0.00  0.00    +0.210 HD
ENDBRANCH  16  29
BRANCH  17  31
ATOM     31  O   UNL     1      10.041  16.482  20.824  0.00  0.00    -0.388 OA
ATOM     32  H   UNL     1       9.222  16.394  20.613  0.00  0.00    +0.210 HD
ENDBRANCH  17  31
TORSDOF 5
ENDMDL
MODEL 6
REMARK VINA RESULT:      -8.1      9.190     13.157
REMARK  Name = 6I1S_E26.pdb
REMARK  8 active torsions:
REMARK  status: ('A' for Active; 'I' for Inactive)
REMARK    1  A    between atoms: _1  and  _2
REMARK    2  A    between atoms: _2  and  _3
REMARK    3  A    between atoms: _3  and  _4
REMARK    4  A    between atoms: _10  and  _28
REMARK    5  A    between atoms: _11  and  _27
REMARK    6  A    between atoms: _15  and  _16
REMARK    7  A    between atoms: _17  and  _18
REMARK    8  A    between atoms: _22  and  _24
REMARK                            x       y       z     vdW  Elec       q    Type
REMARK                         _______ _______ _______ _____ _____    ______ ____
ROOT
ATOM      1  C   UNL     1      13.202  20.067  25.652  0.00  0.00    +0.031 A 
ATOM      2  C   UNL     1      13.856  19.152  26.470  0.00  0.00    +0.069 A 
ATOM      3  C   UNL     1      13.283  17.904  26.667  0.00  0.00    +0.133 A 
ATOM      4  C   UNL     1      12.062  17.563  26.068  0.00  0.00    +0.107 A 
ATOM      5  C   UNL     1      11.510  16.165  26.359  0.00  0.00    +0.344 C 
ATOM      6  O   UNL     1      12.110  15.374  27.015  0.00  0.00    -0.245 OA
ATOM      7  O   UNL     1      10.237  15.847  25.867  0.00  0.00    -0.457 OA
ATOM      8  C   UNL     1       9.726  14.556  26.164  0.00  0.00    +0.180 C 
ATOM      9  C   UNL     1       9.038  14.513  27.502  0.00  0.00    +0.052 C 
ATOM     10  C   UNL     1       8.768  14.259  24.999  0.00  0.00    +0.049 C 
ATOM     11  C   UNL     1       8.123  12.885  25.153  0.00  0.00    +0.015 C 
ATOM     12  C   UNL     1       9.556  14.330  23.682  0.00  0.00    -0.017 C 
ATOM     13  C   UNL     1       9.105  14.881  22.553  0.00  0.00    +0.045 C 
ATOM     14  C   UNL     1       7.765  15.611  22.374  0.00  0.00    +0.187 C 
ATOM     15  O   UNL     1       6.850  15.539  23.132  0.00  0.00    -0.290 OA
ATOM     16  C   UNL     1       7.734  16.611  21.188  0.00  0.00    +0.213 C 
ATOM     17  C   UNL     1       8.816  17.675  21.475  0.00  0.00    +0.154 C 
ATOM     18  C   UNL     1       8.481  18.626  22.632  0.00  0.00    +0.061 C 
ATOM     19  C   UNL     1       9.777  18.918  23.407  0.00  0.00    -0.024 C 
ATOM     20  C   UNL     1      10.088  18.230  24.509  0.00  0.00    +0.005 C 
ATOM     21  C   UNL     1      11.409  18.503  25.242  0.00  0.00    -0.006 A 
ATOM     22  C   UNL     1      11.998  19.737  25.046  0.00  0.00    +0.032 A 
ENDROOT
BRANCH   1  23
ATOM     23  N   UNL     1      13.773  21.375  25.419  0.00  0.00    -0.344 N 
ATOM     24  H   UNL     1      14.592  21.454  25.142  0.00  0.00    +0.146 HD
BRANCH  23  26
ATOM     25  C   UNL     1      12.564  22.564  27.133  0.00  0.00    +0.024 C 
ATOM     26  C   UNL     1      12.961  22.556  25.652  0.00  0.00    +0.098 C 
ENDBRANCH  23  26
ENDBRANCH   1  23
BRANCH   3  27
ATOM     27  O   UNL     1      13.920  16.970  27.488  0.00  0.00    -0.506 OA
ATOM     28  H   UNL     1      13.871  17.224  28.298  0.00  0.00    +0.292 HD
ENDBRANCH   3  27
BRANCH  16  29
ATOM     29  O   UNL     1       6.481  17.162  21.059  0.00  0.00    -0.381 OA
ATOM     30  H   UNL     1       5.949  16.794  21.611  0.00  0.00    +0.210 HD
ENDBRANCH  16  29
BRANCH  17  31
ATOM     31  O   UNL     1       9.036  18.451  20.333  0.00  0.00    -0.388 OA
ATOM     32  H   UNL     1       9.260  17.946  19.686  0.00  0.00    +0.210 HD
ENDBRANCH  17  31
TORSDOF 5
ENDMDL
MODEL 7
REMARK VINA RESULT:      -8.0      8.887     10.942
REMARK  Name = 6I1S_E26.pdb
REMARK  8 active torsions:
REMARK  status: ('A' for Active; 'I' for Inactive)
REMARK    1  A    between atoms: _1  and  _2
REMARK    2  A    between atoms: _2  and  _3
REMARK    3  A    between atoms: _3  and  _4
REMARK    4  A    between atoms: _10  and  _28
REMARK    5  A    between atoms: _11  and  _27
REMARK    6  A    between atoms: _15  and  _16
REMARK    7  A    between atoms: _17  and  _18
REMARK    8  A    between atoms: _22  and  _24
REMARK                            x       y       z     vdW  Elec       q    Type
REMARK                         _______ _______ _______ _____ _____    ______ ____
ROOT
ATOM      1  C   UNL     1      14.069  24.007  22.123  0.00  0.00    +0.031 A 
ATOM      2  C   UNL     1      15.446  23.872  22.257  0.00  0.00    +0.069 A 
ATOM      3  C   UNL     1      16.230  23.864  21.113  0.00  0.00    +0.133 A 
ATOM      4  C   UNL     1      15.656  23.979  19.838  0.00  0.00    +0.107 A 
ATOM      5  C   UNL     1      16.609  23.948  18.640  0.00  0.00    +0.344 C 
ATOM      6  O   UNL     1      17.790  23.889  18.776  0.00  0.00    -0.245 OA
ATOM      7  O   UNL     1      16.048  23.943  17.356  0.00  0.00    -0.457 OA
ATOM      8  C   UNL     1      16.942  23.888  16.254  0.00  0.00    +0.180 C 
ATOM      9  C   UNL     1      17.332  22.477  15.909  0.00  0.00    +0.052 C 
ATOM     10  C   UNL     1      16.171  24.580  15.118  0.00  0.00    +0.049 C 
ATOM     11  C   UNL     1      16.997  24.620  13.836  0.00  0.00    +0.015 C 
ATOM     12  C   UNL     1      15.812  26.007  15.562  0.00  0.00    -0.017 C 
ATOM     13  C   UNL     1      14.644  26.608  15.327  0.00  0.00    +0.045 C 
ATOM     14  C   UNL     1      13.420  25.974  14.648  0.00  0.00    +0.187 C 
ATOM     15  O   UNL     1      13.447  24.971  14.007  0.00  0.00    -0.290 OA
ATOM     16  C   UNL     1      12.070  26.653  14.998  0.00  0.00    +0.213 C 
ATOM     17  C   UNL     1      11.885  26.517  16.524  0.00  0.00    +0.154 C 
ATOM     18  C   UNL     1      11.594  25.089  17.005  0.00  0.00    +0.061 C 
ATOM     19  C   UNL     1      12.325  24.871  18.341  0.00  0.00    -0.024 C 
ATOM     20  C   UNL     1      13.522  24.279  18.381  0.00  0.00    +0.005 C 
ATOM     21  C   UNL     1      14.256  24.114  19.719  0.00  0.00    -0.006 A 
ATOM     22  C   UNL     1      13.490  24.131  20.867  0.00  0.00    +0.032 A 
ENDROOT
BRANCH   1  23
ATOM     23  N   UNL     1      13.220  24.025  23.294  0.00  0.00    -0.344 N 
ATOM     24  H   UNL     1      12.782  24.745  23.508  0.00  0.00    +0.146 HD
BRANCH  23  26
ATOM     25  C   UNL     1      13.647  23.163  25.504  0.00  0.00    +0.024 C 
ATOM     26  C   UNL     1      13.107  22.829  24.109  0.00  0.00    +0.098 C 
ENDBRANCH  23  26
ENDBRANCH   1  23
BRANCH   3  27
ATOM     27  O   UNL     1      17.616  23.726  21.223  0.00  0.00    -0.506 OA
ATOM     28  H   UNL     1      17.803  22.935  21.472  0.00  0.00    +0.292 HD
ENDBRANCH   3  27
BRANCH  16  29
ATOM     29  O   UNL     1      11.043  26.069  14.293  0.00  0.00    -0.381 OA
ATOM     30  H   UNL     1      10.303  26.242  14.673  0.00  0.00    +0.210 HD
ENDBRANCH  16  29
BRANCH  17  31
ATOM     31  O   UNL     1      10.835  27.335  16.953  0.00  0.00    -0.388 OA
ATOM     32  H   UNL     1      10.595  27.844  16.316  0.00  0.00    +0.210 HD
ENDBRANCH  17  31
TORSDOF 5
ENDMDL
MODEL 8
REMARK VINA RESULT:      -7.9      9.171     12.132
REMARK  Name = 6I1S_E26.pdb
REMARK  8 active torsions:
REMARK  status: ('A' for Active; 'I' for Inactive)
REMARK    1  A    between atoms: _1  and  _2
REMARK    2  A    between atoms: _2  and  _3
REMARK    3  A    between atoms: _3  and  _4
REMARK    4  A    between atoms: _10  and  _28
REMARK    5  A    between atoms: _11  and  _27
REMARK    6  A    between atoms: _15  and  _16
REMARK    7  A    between atoms: _17  and  _18
REMARK    8  A    between atoms: _22  and  _24
REMARK                            x       y       z     vdW  Elec       q    Type
REMARK                         _______ _______ _______ _____ _____    ______ ____
ROOT
ATOM      1  C   UNL     1       7.742  17.600  23.073  0.00  0.00    +0.031 A 
ATOM      2  C   UNL     1       7.677  17.053  24.349  0.00  0.00    +0.069 A 
ATOM      3  C   UNL     1       8.687  17.349  25.253  0.00  0.00    +0.133 A 
ATOM      4  C   UNL     1       9.764  18.172  24.896  0.00  0.00    +0.107 A 
ATOM      5  C   UNL     1      10.831  18.426  25.964  0.00  0.00    +0.344 C 
ATOM      6  O   UNL     1      10.731  17.997  27.070  0.00  0.00    -0.245 OA
ATOM      7  O   UNL     1      11.972  19.149  25.593  0.00  0.00    -0.457 OA
ATOM      8  C   UNL     1      12.966  19.356  26.586  0.00  0.00    +0.180 C 
ATOM      9  C   UNL     1      13.928  18.203  26.675  0.00  0.00    +0.052 C 
ATOM     10  C   UNL     1      13.652  20.663  26.156  0.00  0.00    +0.049 C 
ATOM     11  C   UNL     1      14.761  21.049  27.130  0.00  0.00    +0.015 C 
ATOM     12  C   UNL     1      12.595  21.776  26.088  0.00  0.00    -0.017 C 
ATOM     13  C   UNL     1      12.531  22.709  25.135  0.00  0.00    +0.045 C 
ATOM     14  C   UNL     1      13.436  22.803  23.898  0.00  0.00    +0.187 C 
ATOM     15  O   UNL     1      14.471  22.229  23.772  0.00  0.00    -0.290 OA
ATOM     16  C   UNL     1      12.818  23.590  22.711  0.00  0.00    +0.213 C 
ATOM     17  C   UNL     1      11.534  22.839  22.300  0.00  0.00    +0.154 C 
ATOM     18  C   UNL     1      11.778  21.485  21.620  0.00  0.00    +0.061 C 
ATOM     19  C   UNL     1      10.694  20.503  22.096  0.00  0.00    -0.024 C 
ATOM     20  C   UNL     1      10.927  19.658  23.104  0.00  0.00    +0.005 C 
ATOM     21  C   UNL     1       9.816  18.719  23.596  0.00  0.00    -0.006 A 
ATOM     22  C   UNL     1       8.798  18.426  22.710  0.00  0.00    +0.032 A 
ENDROOT
BRANCH   1  23
ATOM     23  N   UNL     1       6.704  17.320  22.105  0.00  0.00    -0.344 N 
ATOM     24  H   UNL     1       6.638  17.796  21.382  0.00  0.00    +0.146 HD
BRANCH  23  26
ATOM     25  C   UNL     1       4.746  16.229  21.218  0.00  0.00    +0.024 C 
ATOM     26  C   UNL     1       5.775  16.232  22.355  0.00  0.00    +0.098 C 
ENDBRANCH  23  26
ENDBRANCH   1  23
BRANCH   3  27
ATOM     27  O   UNL     1       8.644  16.807  26.541  0.00  0.00    -0.506 OA
ATOM     28  H   UNL     1       8.126  16.134  26.548  0.00  0.00    +0.292 HD
ENDBRANCH   3  27
BRANCH  16  29
ATOM     29  O   UNL     1      13.721  23.684  21.678  0.00  0.00    -0.381 OA
ATOM     30  H   UNL     1      13.322  23.940  20.973  0.00  0.00    +0.210 HD
ENDBRANCH  16  29
BRANCH  17  31
ATOM     31  O   UNL     1      10.780  23.627  21.424  0.00  0.00    -0.388 OA
ATOM     32  H   UNL     1      11.247  23.813  20.739  0.00  0.00    +0.210 HD
ENDBRANCH  17  31
TORSDOF 5
ENDMDL
MODEL 9
REMARK VINA RESULT:      -7.7      8.433     13.261
REMARK  Name = 6I1S_E26.pdb
REMARK  8 active torsions:
REMARK  status: ('A' for Active; 'I' for Inactive)
REMARK    1  A    between atoms: _1  and  _2
REMARK    2  A    between atoms: _2  and  _3
REMARK    3  A    between atoms: _3  and  _4
REMARK    4  A    between atoms: _10  and  _28
REMARK    5  A    between atoms: _11  and  _27
REMARK    6  A    between atoms: _15  and  _16
REMARK    7  A    between atoms: _17  and  _18
REMARK    8  A    between atoms: _22  and  _24
REMARK                            x       y       z     vdW  Elec       q    Type
REMARK                         _______ _______ _______ _____ _____    ______ ____
ROOT
ATOM      1  C   UNL     1       8.129  17.869  21.050  0.00  0.00    +0.031 A 
ATOM      2  C   UNL     1       7.422  16.770  21.523  0.00  0.00    +0.069 A 
ATOM      3  C   UNL     1       7.808  16.195  22.725  0.00  0.00    +0.133 A 
ATOM      4  C   UNL     1       8.897  16.695  23.453  0.00  0.00    +0.107 A 
ATOM      5  C   UNL     1       9.248  15.981  24.760  0.00  0.00    +0.344 C 
ATOM      6  O   UNL     1       8.596  15.077  25.179  0.00  0.00    -0.245 OA
ATOM      7  O   UNL     1      10.401  16.390  25.442  0.00  0.00    -0.457 OA
ATOM      8  C   UNL     1      10.730  15.703  26.641  0.00  0.00    +0.180 C 
ATOM      9  C   UNL     1      11.528  14.455  26.379  0.00  0.00    +0.052 C 
ATOM     10  C   UNL     1      11.512  16.742  27.461  0.00  0.00    +0.049 C 
ATOM     11  C   UNL     1      11.946  16.168  28.806  0.00  0.00    +0.015 C 
ATOM     12  C   UNL     1      10.623  17.976  27.672  0.00  0.00    -0.017 C 
ATOM     13  C   UNL     1      11.044  19.241  27.600  0.00  0.00    +0.045 C 
ATOM     14  C   UNL     1      12.458  19.704  27.219  0.00  0.00    +0.187 C 
ATOM     15  O   UNL     1      13.419  19.001  27.209  0.00  0.00    -0.290 OA
ATOM     16  C   UNL     1      12.532  21.154  26.671  0.00  0.00    +0.213 C 
ATOM     17  C   UNL     1      11.663  21.192  25.396  0.00  0.00    +0.154 C 
ATOM     18  C   UNL     1      12.253  20.429  24.202  0.00  0.00    +0.061 C 
ATOM     19  C   UNL     1      11.099  19.742  23.451  0.00  0.00    -0.024 C 
ATOM     20  C   UNL     1      10.792  18.464  23.684  0.00  0.00    +0.005 C 
ATOM     21  C   UNL     1       9.606  17.811  22.958  0.00  0.00    -0.006 A 
ATOM     22  C   UNL     1       9.203  18.380  21.767  0.00  0.00    +0.032 A 
ENDROOT
BRANCH   1  23
ATOM     23  N   UNL     1       7.751  18.500  19.803  0.00  0.00    -0.344 N 
ATOM     24  H   UNL     1       7.977  19.323  19.642  0.00  0.00    +0.146 HD
BRANCH  23  26
ATOM     25  C   UNL     1       6.509  18.720  17.750  0.00  0.00    +0.024 C 
ATOM     26  C   UNL     1       6.992  17.741  18.826  0.00  0.00    +0.098 C 
ENDBRANCH  23  26
ENDBRANCH   1  23
BRANCH   3  27
ATOM     27  O   UNL     1       7.113  15.087  23.218  0.00  0.00    -0.506 OA
ATOM     28  H   UNL     1       7.484  14.815  23.932  0.00  0.00    +0.292 HD
ENDBRANCH   3  27
BRANCH  16  29
ATOM     29  O   UNL     1      13.838  21.507  26.425  0.00  0.00    -0.381 OA
ATOM     30  H   UNL     1      14.242  20.860  26.048  0.00  0.00    +0.210 HD
ENDBRANCH  16  29
BRANCH  17  31
ATOM     31  O   UNL     1      11.459  22.517  24.997  0.00  0.00    -0.388 OA
ATOM     32  H   UNL     1      10.627  22.653  24.884  0.00  0.00    +0.210 HD
ENDBRANCH  17  31
TORSDOF 5
ENDMDL
