MODEL 1
REMARK VINA RESULT:      -4.6      0.000      0.000
REMARK  Name = 4DYM_IYZ.pdb
REMARK  4 active torsions:
REMARK  status: ('A' for Active; 'I' for Inactive)
REMARK    1  A    between atoms: _11  and  _18
REMARK    2  A    between atoms: _11  and  _21
REMARK    3  A    between atoms: _12  and  _13
REMARK    4  A    between atoms: _14  and  _16
REMARK                            x       y       z     vdW  Elec       q    Type
REMARK                         _______ _______ _______ _____ _____    ______ ____
ROOT
ATOM      1  C   UNL     1      29.296  21.393  20.158  0.00  0.00    +0.104 A 
ATOM      2  N   UNL     1      29.460  22.779  20.131  0.00  0.00    -0.210 N 
ATOM      3  N   UNL     1      28.999  23.697  20.828  0.00  0.00    -0.147 NA
ATOM      4  C   UNL     1      29.314  25.004  20.652  0.00  0.00    +0.168 A 
ATOM      5  N   UNL     1      28.724  25.945  21.430  0.00  0.00    -0.219 NA
ATOM      6  C   UNL     1      30.239  25.361  19.661  0.00  0.00    +0.041 A 
ATOM      7  C   UNL     1      30.785  24.354  18.900  0.00  0.00    +0.042 A 
ATOM      8  C   UNL     1      30.393  23.039  19.128  0.00  0.00    +0.164 A 
ATOM      9  N   UNL     1      30.706  21.868  18.559  0.00  0.00    -0.223 NA
ATOM     10  C   UNL     1      30.078  20.870  19.194  0.00  0.00    +0.120 A 
ENDROOT
BRANCH   1  13
ATOM     11  C   UNL     1      28.174  19.726  23.269  0.00  0.00    +0.035 A 
ATOM     12  C   UNL     1      28.956  20.377  22.332  0.00  0.00    +0.004 A 
ATOM     13  C   UNL     1      28.464  20.756  21.079  0.00  0.00    +0.019 A 
ATOM     14  C   UNL     1      27.146  20.415  20.734  0.00  0.00    +0.002 A 
ATOM     15  C   UNL     1      26.343  19.741  21.674  0.00  0.00    +0.000 A 
ATOM     16  C   UNL     1      26.862  19.408  22.945  0.00  0.00    +0.003 A 
BRANCH  11  18
ATOM     17  C   UNL     1      28.244  20.112  25.906  0.00  0.00    +0.077 C 
ATOM     18  C   UNL     1      28.784  19.398  24.672  0.00  0.00    +0.173 C 
ATOM     19  O   UNL     1      29.653  18.535  24.822  0.00  0.00    -0.291 OA
ENDBRANCH  11  18
ENDBRANCH   1  13
BRANCH   5  20
ATOM     20  C   UNL     1      28.117  25.622  22.726  0.00  0.00    +0.114 C 
BRANCH  20  21
ATOM     21  C   UNL     1      28.084  26.831  23.685  0.00  0.00    +0.022 C 
ATOM     22  C   UNL     1      26.998  26.837  24.770  0.00  0.00    +0.002 C 
ATOM     23  C   UNL     1      28.427  26.493  25.156  0.00  0.00    +0.002 C 
ENDBRANCH  20  21
ENDBRANCH   5  20
TORSDOF 4
ENDMDL
MODEL 2
REMARK VINA RESULT:      -4.5      9.035     11.510
REMARK  Name = 4DYM_IYZ.pdb
REMARK  4 active torsions:
REMARK  status: ('A' for Active; 'I' for Inactive)
REMARK    1  A    between atoms: _11  and  _18
REMARK    2  A    between atoms: _11  and  _21
REMARK    3  A    between atoms: _12  and  _13
REMARK    4  A    between atoms: _14  and  _16
REMARK                            x       y       z     vdW  Elec       q    Type
REMARK                         _______ _______ _______ _____ _____    ______ ____
ROOT
ATOM      1  C   UNL     1      30.161  24.383  33.852  0.00  0.00    +0.104 A 
ATOM      2  N   UNL     1      29.645  25.648  33.564  0.00  0.00    -0.210 N 
ATOM      3  N   UNL     1      29.303  26.198  32.505  0.00  0.00    -0.147 NA
ATOM      4  C   UNL     1      28.787  27.450  32.442  0.00  0.00    +0.168 A 
ATOM      5  N   UNL     1      28.485  27.989  31.235  0.00  0.00    -0.219 NA
ATOM      6  C   UNL     1      28.583  28.170  33.627  0.00  0.00    +0.041 A 
ATOM      7  C   UNL     1      28.928  27.565  34.814  0.00  0.00    +0.042 A 
ATOM      8  C   UNL     1      29.472  26.285  34.792  0.00  0.00    +0.164 A 
ATOM      9  N   UNL     1      29.924  25.456  35.741  0.00  0.00    -0.223 NA
ATOM     10  C   UNL     1      30.307  24.297  35.189  0.00  0.00    +0.120 A 
ENDROOT
BRANCH   1  13
ATOM     11  C   UNL     1      29.963  21.246  31.895  0.00  0.00    +0.035 A 
ATOM     12  C   UNL     1      29.726  22.222  32.847  0.00  0.00    +0.004 A 
ATOM     13  C   UNL     1      30.419  23.436  32.862  0.00  0.00    +0.019 A 
ATOM     14  C   UNL     1      31.432  23.654  31.913  0.00  0.00    +0.002 A 
ATOM     15  C   UNL     1      31.692  22.664  30.947  0.00  0.00    +0.000 A 
ATOM     16  C   UNL     1      30.945  21.464  30.938  0.00  0.00    +0.003 A 
BRANCH  11  18
ATOM     17  C   UNL     1      28.463  19.482  33.219  0.00  0.00    +0.077 C 
ATOM     18  C   UNL     1      29.095  19.944  31.910  0.00  0.00    +0.173 C 
ATOM     19  O   UNL     1      28.855  19.307  30.881  0.00  0.00    -0.291 OA
ENDBRANCH  11  18
ENDBRANCH   1  13
BRANCH   5  20
ATOM     20  C   UNL     1      28.259  27.165  30.043  0.00  0.00    +0.114 C 
BRANCH  20  21
ATOM     21  C   UNL     1      26.841  27.339  29.459  0.00  0.00    +0.022 C 
ATOM     22  C   UNL     1      26.734  27.864  28.021  0.00  0.00    +0.002 C 
ATOM     23  C   UNL     1      26.508  26.385  28.286  0.00  0.00    +0.002 C 
ENDBRANCH  20  21
ENDBRANCH   5  20
TORSDOF 4
ENDMDL
MODEL 3
REMARK VINA RESULT:      -4.5     11.732     14.777
REMARK  Name = 4DYM_IYZ.pdb
REMARK  4 active torsions:
REMARK  status: ('A' for Active; 'I' for Inactive)
REMARK    1  A    between atoms: _11  and  _18
REMARK    2  A    between atoms: _11  and  _21
REMARK    3  A    between atoms: _12  and  _13
REMARK    4  A    between atoms: _14  and  _16
REMARK                            x       y       z     vdW  Elec       q    Type
REMARK                         _______ _______ _______ _____ _____    ______ ____
ROOT
ATOM      1  C   UNL     1      18.365  12.243  20.744  0.00  0.00    +0.104 A 
ATOM      2  N   UNL     1      18.340  11.293  21.766  0.00  0.00    -0.210 N 
ATOM      3  N   UNL     1      18.920  11.215  22.861  0.00  0.00    -0.147 NA
ATOM      4  C   UNL     1      18.731  10.201  23.740  0.00  0.00    +0.168 A 
ATOM      5  N   UNL     1      19.445  10.175  24.894  0.00  0.00    -0.219 NA
ATOM      6  C   UNL     1      17.807   9.192  23.438  0.00  0.00    +0.041 A 
ATOM      7  C   UNL     1      17.131   9.277  22.243  0.00  0.00    +0.042 A 
ATOM      8  C   UNL     1      17.398  10.338  21.384  0.00  0.00    +0.164 A 
ATOM      9  N   UNL     1      16.946  10.683  20.173  0.00  0.00    -0.223 NA
ATOM     10  C   UNL     1      17.495  11.846  19.795  0.00  0.00    +0.120 A 
ENDROOT
BRANCH   1  13
ATOM     11  C   UNL     1      21.219  14.530  20.163  0.00  0.00    +0.035 A 
ATOM     12  C   UNL     1      20.384  13.428  20.119  0.00  0.00    +0.004 A 
ATOM     13  C   UNL     1      19.165  13.384  20.802  0.00  0.00    +0.019 A 
ATOM     14  C   UNL     1      18.797  14.473  21.609  0.00  0.00    +0.002 A 
ATOM     15  C   UNL     1      19.643  15.596  21.673  0.00  0.00    +0.000 A 
ATOM     16  C   UNL     1      20.850  15.621  20.939  0.00  0.00    +0.003 A 
BRANCH  11  18
ATOM     17  C   UNL     1      22.698  15.532  18.183  0.00  0.00    +0.077 C 
ATOM     18  C   UNL     1      22.534  14.523  19.314  0.00  0.00    +0.173 C 
ATOM     19  O   UNL     1      23.471  13.762  19.568  0.00  0.00    -0.291 OA
ENDBRANCH  11  18
ENDBRANCH   1  13
BRANCH   5  20
ATOM     20  C   UNL     1      20.069  11.376  25.457  0.00  0.00    +0.114 C 
BRANCH  20  21
ATOM     21  C   UNL     1      21.475  11.643  24.879  0.00  0.00    +0.022 C 
ATOM     22  C   UNL     1      21.703  12.993  24.184  0.00  0.00    +0.002 C 
ATOM     23  C   UNL     1      22.254  12.780  25.584  0.00  0.00    +0.002 C 
ENDBRANCH  20  21
ENDBRANCH   5  20
TORSDOF 4
ENDMDL
MODEL 4
REMARK VINA RESULT:      -4.4     11.910     14.516
REMARK  Name = 4DYM_IYZ.pdb
REMARK  4 active torsions:
REMARK  status: ('A' for Active; 'I' for Inactive)
REMARK    1  A    between atoms: _11  and  _18
REMARK    2  A    between atoms: _11  and  _21
REMARK    3  A    between atoms: _12  and  _13
REMARK    4  A    between atoms: _14  and  _16
REMARK                            x       y       z     vdW  Elec       q    Type
REMARK                         _______ _______ _______ _____ _____    ______ ____
ROOT
ATOM      1  C   UNL     1      19.023  12.878  16.612  0.00  0.00    +0.104 A 
ATOM      2  N   UNL     1      18.611  12.625  17.921  0.00  0.00    -0.210 N 
ATOM      3  N   UNL     1      18.784  13.229  18.993  0.00  0.00    -0.147 NA
ATOM      4  C   UNL     1      18.262  12.823  20.176  0.00  0.00    +0.168 A 
ATOM      5  N   UNL     1      18.544  13.520  21.305  0.00  0.00    -0.219 NA
ATOM      6  C   UNL     1      17.447  11.683  20.213  0.00  0.00    +0.041 A 
ATOM      7  C   UNL     1      17.218  11.018  19.031  0.00  0.00    +0.042 A 
ATOM      8  C   UNL     1      17.808  11.487  17.862  0.00  0.00    +0.164 A 
ATOM      9  N   UNL     1      17.807  11.063  16.592  0.00  0.00    -0.223 NA
ATOM     10  C   UNL     1      18.506  11.913  15.827  0.00  0.00    +0.120 A 
ENDROOT
BRANCH   1  13
ATOM     11  C   UNL     1      20.011  16.144  15.173  0.00  0.00    +0.035 A 
ATOM     12  C   UNL     1      19.265  15.041  15.547  0.00  0.00    +0.004 A 
ATOM     13  C   UNL     1      19.810  13.979  16.275  0.00  0.00    +0.019 A 
ATOM     14  C   UNL     1      21.178  14.003  16.592  0.00  0.00    +0.002 A 
ATOM     15  C   UNL     1      21.952  15.114  16.207  0.00  0.00    +0.000 A 
ATOM     16  C   UNL     1      21.359  16.187  15.505  0.00  0.00    +0.003 A 
BRANCH  11  18
ATOM     17  C   UNL     1      19.848  18.736  14.569  0.00  0.00    +0.077 C 
ATOM     18  C   UNL     1      19.306  17.320  14.419  0.00  0.00    +0.173 C 
ATOM     19  O   UNL     1      18.355  17.129  13.656  0.00  0.00    -0.291 OA
ENDBRANCH  11  18
ENDBRANCH   1  13
BRANCH   5  20
ATOM     20  C   UNL     1      18.998  14.913  21.273  0.00  0.00    +0.114 C 
BRANCH  20  21
ATOM     21  C   UNL     1      20.019  15.232  22.385  0.00  0.00    +0.022 C 
ATOM     22  C   UNL     1      20.890  14.074  22.892  0.00  0.00    +0.002 C 
ATOM     23  C   UNL     1      21.500  15.103  21.954  0.00  0.00    +0.002 C 
ENDBRANCH  20  21
ENDBRANCH   5  20
TORSDOF 4
ENDMDL
MODEL 5
REMARK VINA RESULT:      -4.4      3.185      5.715
REMARK  Name = 4DYM_IYZ.pdb
REMARK  4 active torsions:
REMARK  status: ('A' for Active; 'I' for Inactive)
REMARK    1  A    between atoms: _11  and  _18
REMARK    2  A    between atoms: _11  and  _21
REMARK    3  A    between atoms: _12  and  _13
REMARK    4  A    between atoms: _14  and  _16
REMARK                            x       y       z     vdW  Elec       q    Type
REMARK                         _______ _______ _______ _____ _____    ______ ____
ROOT
ATOM      1  C   UNL     1      28.101  20.670  21.312  0.00  0.00    +0.104 A 
ATOM      2  N   UNL     1      28.458  20.327  22.617  0.00  0.00    -0.210 N 
ATOM      3  N   UNL     1      29.428  20.622  23.333  0.00  0.00    -0.147 NA
ATOM      4  C   UNL     1      29.574  20.198  24.612  0.00  0.00    +0.168 A 
ATOM      5  N   UNL     1      30.692  20.533  25.304  0.00  0.00    -0.219 NA
ATOM      6  C   UNL     1      28.571  19.411  25.194  0.00  0.00    +0.041 A 
ATOM      7  C   UNL     1      27.473  19.098  24.427  0.00  0.00    +0.042 A 
ATOM      8  C   UNL     1      27.408  19.555  23.114  0.00  0.00    +0.164 A 
ATOM      9  N   UNL     1      26.517  19.406  22.127  0.00  0.00    -0.223 NA
ATOM     10  C   UNL     1      26.908  20.102  21.050  0.00  0.00    +0.120 A 
ENDROOT
BRANCH   1  13
ATOM     11  C   UNL     1      29.720  23.717  19.965  0.00  0.00    +0.035 A 
ATOM     12  C   UNL     1      28.960  22.865  20.747  0.00  0.00    +0.004 A 
ATOM     13  C   UNL     1      28.897  21.488  20.510  0.00  0.00    +0.019 A 
ATOM     14  C   UNL     1      29.583  20.955  19.406  0.00  0.00    +0.002 A 
ATOM     15  C   UNL     1      30.350  21.813  18.595  0.00  0.00    +0.000 A 
ATOM     16  C   UNL     1      30.422  23.193  18.887  0.00  0.00    +0.003 A 
BRANCH  11  18
ATOM     17  C   UNL     1      28.798  25.799  21.352  0.00  0.00    +0.077 C 
ATOM     18  C   UNL     1      29.789  25.234  20.341  0.00  0.00    +0.173 C 
ATOM     19  O   UNL     1      30.661  25.980  19.889  0.00  0.00    -0.291 OA
ENDBRANCH  11  18
ENDBRANCH   1  13
BRANCH   5  20
ATOM     20  C   UNL     1      31.533  21.674  24.929  0.00  0.00    +0.114 C 
BRANCH  20  21
ATOM     21  C   UNL     1      30.891  23.030  25.290  0.00  0.00    +0.022 C 
ATOM     22  C   UNL     1      31.726  24.292  25.036  0.00  0.00    +0.002 C 
ATOM     23  C   UNL     1      30.600  23.947  24.076  0.00  0.00    +0.002 C 
ENDBRANCH  20  21
ENDBRANCH   5  20
TORSDOF 4
ENDMDL
MODEL 6
REMARK VINA RESULT:      -4.3      3.071      6.125
REMARK  Name = 4DYM_IYZ.pdb
REMARK  4 active torsions:
REMARK  status: ('A' for Active; 'I' for Inactive)
REMARK    1  A    between atoms: _11  and  _18
REMARK    2  A    between atoms: _11  and  _21
REMARK    3  A    between atoms: _12  and  _13
REMARK    4  A    between atoms: _14  and  _16
REMARK                            x       y       z     vdW  Elec       q    Type
REMARK                         _______ _______ _______ _____ _____    ______ ____
ROOT
ATOM      1  C   UNL     1      29.181  26.324  22.579  0.00  0.00    +0.104 A 
ATOM      2  N   UNL     1      29.432  25.151  21.864  0.00  0.00    -0.210 N 
ATOM      3  N   UNL     1      29.698  23.990  22.213  0.00  0.00    -0.147 NA
ATOM      4  C   UNL     1      29.881  22.968  21.342  0.00  0.00    +0.168 A 
ATOM      5  N   UNL     1      30.215  21.740  21.813  0.00  0.00    -0.219 NA
ATOM      6  C   UNL     1      29.732  23.200  19.968  0.00  0.00    +0.041 A 
ATOM      7  C   UNL     1      29.407  24.474  19.563  0.00  0.00    +0.042 A 
ATOM      8  C   UNL     1      29.257  25.474  20.519  0.00  0.00    +0.164 A 
ATOM      9  N   UNL     1      28.980  26.782  20.452  0.00  0.00    -0.223 NA
ATOM     10  C   UNL     1      28.898  27.294  21.688  0.00  0.00    +0.120 A 
ENDROOT
BRANCH   1  13
ATOM     11  C   UNL     1      28.047  26.745  26.079  0.00  0.00    +0.035 A 
ATOM     12  C   UNL     1      28.057  26.667  24.698  0.00  0.00    +0.004 A 
ATOM     13  C   UNL     1      29.215  26.372  23.973  0.00  0.00    +0.019 A 
ATOM     14  C   UNL     1      30.426  26.203  24.663  0.00  0.00    +0.002 A 
ATOM     15  C   UNL     1      30.433  26.292  26.068  0.00  0.00    +0.000 A 
ATOM     16  C   UNL     1      29.236  26.554  26.771  0.00  0.00    +0.003 A 
BRANCH  11  18
ATOM     17  C   UNL     1      26.464  26.414  28.199  0.00  0.00    +0.077 C 
ATOM     18  C   UNL     1      26.693  27.014  26.816  0.00  0.00    +0.173 C 
ATOM     19  O   UNL     1      25.823  27.746  26.338  0.00  0.00    -0.291 OA
ENDBRANCH  11  18
ENDBRANCH   1  13
BRANCH   5  20
ATOM     20  C   UNL     1      29.959  21.336  23.199  0.00  0.00    +0.114 C 
BRANCH  20  21
ATOM     21  C   UNL     1      31.179  21.555  24.118  0.00  0.00    +0.022 C 
ATOM     22  C   UNL     1      31.031  22.583  25.248  0.00  0.00    +0.002 C 
ATOM     23  C   UNL     1      30.969  21.103  25.584  0.00  0.00    +0.002 C 
ENDBRANCH  20  21
ENDBRANCH   5  20
TORSDOF 4
ENDMDL
MODEL 7
REMARK VINA RESULT:      -4.3     16.116     17.636
REMARK  Name = 4DYM_IYZ.pdb
REMARK  4 active torsions:
REMARK  status: ('A' for Active; 'I' for Inactive)
REMARK    1  A    between atoms: _11  and  _18
REMARK    2  A    between atoms: _11  and  _21
REMARK    3  A    between atoms: _12  and  _13
REMARK    4  A    between atoms: _14  and  _16
REMARK                            x       y       z     vdW  Elec       q    Type
REMARK                         _______ _______ _______ _____ _____    ______ ____
ROOT
ATOM      1  C   UNL     1      16.478  15.248  31.735  0.00  0.00    +0.104 A 
ATOM      2  N   UNL     1      17.686  14.575  31.551  0.00  0.00    -0.210 N 
ATOM      3  N   UNL     1      18.836  14.771  31.976  0.00  0.00    -0.147 NA
ATOM      4  C   UNL     1      19.888  13.964  31.696  0.00  0.00    +0.168 A 
ATOM      5  N   UNL     1      21.120  14.284  32.166  0.00  0.00    -0.219 NA
ATOM      6  C   UNL     1      19.687  12.817  30.916  0.00  0.00    +0.041 A 
ATOM      7  C   UNL     1      18.413  12.565  30.462  0.00  0.00    +0.042 A 
ATOM      8  C   UNL     1      17.390  13.454  30.775  0.00  0.00    +0.164 A 
ATOM      9  N   UNL     1      16.088  13.509  30.472  0.00  0.00    -0.223 NA
ATOM     10  C   UNL     1      15.523  14.565  31.074  0.00  0.00    +0.120 A 
ENDROOT
BRANCH   1  13
ATOM     11  C   UNL     1      16.783  17.543  34.627  0.00  0.00    +0.035 A 
ATOM     12  C   UNL     1      16.879  16.426  33.815  0.00  0.00    +0.004 A 
ATOM     13  C   UNL     1      16.376  16.404  32.510  0.00  0.00    +0.019 A 
ATOM     14  C   UNL     1      15.699  17.533  32.022  0.00  0.00    +0.002 A 
ATOM     15  C   UNL     1      15.584  18.671  32.841  0.00  0.00    +0.000 A 
ATOM     16  C   UNL     1      16.137  18.672  34.141  0.00  0.00    +0.003 A 
BRANCH  11  18
ATOM     17  C   UNL     1      18.762  16.786  36.245  0.00  0.00    +0.077 C 
ATOM     18  C   UNL     1      17.432  17.506  36.050  0.00  0.00    +0.173 C 
ATOM     19  O   UNL     1      16.931  18.092  37.012  0.00  0.00    -0.291 OA
ENDBRANCH  11  18
ENDBRANCH   1  13
BRANCH   5  20
ATOM     20  C   UNL     1      21.314  15.181  33.308  0.00  0.00    +0.114 C 
BRANCH  20  21
ATOM     21  C   UNL     1      21.878  14.454  34.547  0.00  0.00    +0.022 C 
ATOM     22  C   UNL     1      23.337  14.741  34.927  0.00  0.00    +0.002 C 
ATOM     23  C   UNL     1      22.223  15.383  35.737  0.00  0.00    +0.002 C 
ENDBRANCH  20  21
ENDBRANCH   5  20
TORSDOF 4
ENDMDL
MODEL 8
REMARK VINA RESULT:      -4.2     12.429     15.546
REMARK  Name = 4DYM_IYZ.pdb
REMARK  4 active torsions:
REMARK  status: ('A' for Active; 'I' for Inactive)
REMARK    1  A    between atoms: _11  and  _18
REMARK    2  A    between atoms: _11  and  _21
REMARK    3  A    between atoms: _12  and  _13
REMARK    4  A    between atoms: _14  and  _16
REMARK                            x       y       z     vdW  Elec       q    Type
REMARK                         _______ _______ _______ _____ _____    ______ ____
ROOT
ATOM      1  C   UNL     1      19.622  14.099  21.073  0.00  0.00    +0.104 A 
ATOM      2  N   UNL     1      19.607  13.236  22.169  0.00  0.00    -0.210 N 
ATOM      3  N   UNL     1      19.523  12.002  22.271  0.00  0.00    -0.147 NA
ATOM      4  C   UNL     1      19.557  11.342  23.454  0.00  0.00    +0.168 A 
ATOM      5  N   UNL     1      19.412   9.993  23.472  0.00  0.00    -0.219 NA
ATOM      6  C   UNL     1      19.732  12.066  24.641  0.00  0.00    +0.041 A 
ATOM      7  C   UNL     1      19.858  13.433  24.547  0.00  0.00    +0.042 A 
ATOM      8  C   UNL     1      19.791  14.038  23.295  0.00  0.00    +0.164 A 
ATOM      9  N   UNL     1      19.847  15.308  22.878  0.00  0.00    -0.223 NA
ATOM     10  C   UNL     1      19.781  15.353  21.541  0.00  0.00    +0.120 A 
ENDROOT
BRANCH   1  13
ATOM     11  C   UNL     1      18.311  12.322  18.100  0.00  0.00    +0.035 A 
ATOM     12  C   UNL     1      18.450  12.814  19.385  0.00  0.00    +0.004 A 
ATOM     13  C   UNL     1      19.512  13.643  19.759  0.00  0.00    +0.019 A 
ATOM     14  C   UNL     1      20.507  13.943  18.814  0.00  0.00    +0.002 A 
ATOM     15  C   UNL     1      20.385  13.438  17.506  0.00  0.00    +0.000 A 
ATOM     16  C   UNL     1      19.277  12.635  17.153  0.00  0.00    +0.003 A 
BRANCH  11  18
ATOM     17  C   UNL     1      15.768  11.652  18.543  0.00  0.00    +0.077 C 
ATOM     18  C   UNL     1      17.055  11.458  17.748  0.00  0.00    +0.173 C 
ATOM     19  O   UNL     1      17.054  10.660  16.807  0.00  0.00    -0.291 OA
ENDBRANCH  11  18
ENDBRANCH   1  13
BRANCH   5  20
ATOM     20  C   UNL     1      19.665   9.162  22.292  0.00  0.00    +0.114 C 
BRANCH  20  21
ATOM     21  C   UNL     1      18.375   8.543  21.712  0.00  0.00    +0.022 C 
ATOM     22  C   UNL     1      17.122   9.429  21.685  0.00  0.00    +0.002 C 
ATOM     23  C   UNL     1      17.887   9.192  20.393  0.00  0.00    +0.002 C 
ENDBRANCH  20  21
ENDBRANCH   5  20
TORSDOF 4
ENDMDL
MODEL 9
REMARK VINA RESULT:      -4.2      4.398      7.219
REMARK  Name = 4DYM_IYZ.pdb
REMARK  4 active torsions:
REMARK  status: ('A' for Active; 'I' for Inactive)
REMARK    1  A    between atoms: _11  and  _18
REMARK    2  A    between atoms: _11  and  _21
REMARK    3  A    between atoms: _12  and  _13
REMARK    4  A    between atoms: _14  and  _16
REMARK                            x       y       z     vdW  Elec       q    Type
REMARK                         _______ _______ _______ _____ _____    ______ ____
ROOT
ATOM      1  C   UNL     1      26.818  19.411  19.850  0.00  0.00    +0.104 A 
ATOM      2  N   UNL     1      27.991  20.090  19.518  0.00  0.00    -0.210 N 
ATOM      3  N   UNL     1      28.639  20.190  18.464  0.00  0.00    -0.147 NA
ATOM      4  C   UNL     1      29.761  20.940  18.341  0.00  0.00    +0.168 A 
ATOM      5  N   UNL     1      30.432  20.951  17.162  0.00  0.00    -0.219 NA
ATOM      6  C   UNL     1      30.215  21.685  19.439  0.00  0.00    +0.041 A 
ATOM      7  C   UNL     1      29.492  21.612  20.607  0.00  0.00    +0.042 A 
ATOM      8  C   UNL     1      28.363  20.801  20.659  0.00  0.00    +0.164 A 
ATOM      9  N   UNL     1      27.485  20.500  21.623  0.00  0.00    -0.223 NA
ATOM     10  C   UNL     1      26.532  19.692  21.137  0.00  0.00    +0.120 A 
ENDROOT
BRANCH   1  13
ATOM     11  C   UNL     1      24.607  18.485  17.027  0.00  0.00    +0.035 A 
ATOM     12  C   UNL     1      25.330  19.224  17.947  0.00  0.00    +0.004 A 
ATOM     13  C   UNL     1      26.122  18.626  18.931  0.00  0.00    +0.019 A 
ATOM     14  C   UNL     1      26.143  17.225  19.030  0.00  0.00    +0.002 A 
ATOM     15  C   UNL     1      25.403  16.461  18.108  0.00  0.00    +0.000 A 
ATOM     16  C   UNL     1      24.644  17.099  17.102  0.00  0.00    +0.003 A 
BRANCH  11  18
ATOM     17  C   UNL     1      22.508  18.622  15.388  0.00  0.00    +0.077 C 
ATOM     18  C   UNL     1      23.801  19.235  15.915  0.00  0.00    +0.173 C 
ATOM     19  O   UNL     1      24.147  20.340  15.490  0.00  0.00    -0.291 OA
ENDBRANCH  11  18
ENDBRANCH   1  13
BRANCH   5  20
ATOM     20  C   UNL     1      29.798  20.572  15.896  0.00  0.00    +0.114 C 
BRANCH  20  21
ATOM     21  C   UNL     1      28.961  21.716  15.284  0.00  0.00    +0.022 C 
ATOM     22  C   UNL     1      28.875  21.780  13.753  0.00  0.00    +0.002 C 
ATOM     23  C   UNL     1      27.686  21.252  14.538  0.00  0.00    +0.002 C 
ENDBRANCH  20  21
ENDBRANCH   5  20
TORSDOF 4
ENDMDL
