MODEL 1
REMARK VINA RESULT:      -7.5      0.000      0.000
REMARK  Name = 5S88_LU8.pdb
REMARK  6 active torsions:
REMARK  status: ('A' for Active; 'I' for Inactive)
REMARK    1  A    between atoms: _2  and  _3
REMARK    2  A    between atoms: _5  and  _6
REMARK    3  A    between atoms: _10  and  _11
REMARK    4  A    between atoms: _14  and  _15
REMARK    5  A    between atoms: _27  and  _28
REMARK    6  A    between atoms: _30  and  _31
REMARK                            x       y       z     vdW  Elec       q    Type
REMARK                         _______ _______ _______ _____ _____    ______ ____
ROOT
ATOM      1  C   UNL     1       8.235  23.238  20.297  0.00  0.00    +0.015 A 
ATOM      2  C   UNL     1       7.959  22.888  18.984  0.00  0.00    -0.019 A 
ATOM      3  C   UNL     1       8.994  22.145  18.193  0.00  0.00    +0.031 C 
ATOM      4  C   UNL     1       6.700  23.177  18.380  0.00  0.00    +0.015 A 
ATOM      5  C   UNL     1       5.796  23.761  19.224  0.00  0.00    +0.099 A 
ATOM      6  N   UNL     1       6.034  24.075  20.464  0.00  0.00    -0.242 NA
ATOM      7  C   UNL     1       7.227  23.837  21.023  0.00  0.00    +0.099 A 
ENDROOT
BRANCH   1  12
ATOM      8  C   UNL     1      11.008  21.624  22.313  0.00  0.00    +0.175 A 
ATOM      9  C   UNL     1      12.102  22.357  21.902  0.00  0.00    +0.206 A 
ATOM     10  C   UNL     1      11.925  23.408  21.030  0.00  0.00    +0.175 A 
ATOM     11  C   UNL     1      10.667  23.690  20.540  0.00  0.00    +0.040 A 
ATOM     12  C   UNL     1       9.550  22.932  20.923  0.00  0.00    +0.007 A 
ATOM     13  C   UNL     1       9.734  21.906  21.848  0.00  0.00    +0.040 A 
BRANCH   8  15
ATOM     14  C   UNL     1      10.609  19.384  23.022  0.00  0.00    +0.253 C 
ATOM     15  O   UNL     1      11.281  20.650  23.219  0.00  0.00    -0.468 OA
ENDBRANCH   8  15
BRANCH   9  16
ATOM     16  O   UNL     1      13.365  22.045  22.346  0.00  0.00    -0.465 OA
ATOM     17  C   UNL     1      13.812  22.642  23.515  0.00  0.00    +0.253 C 
ENDBRANCH   9  16
BRANCH  10  18
ATOM     18  O   UNL     1      13.067  24.102  20.669  0.00  0.00    -0.468 OA
ATOM     19  C   UNL     1      13.316  24.469  19.307  0.00  0.00    +0.253 C 
ENDBRANCH  10  18
ENDBRANCH   1  12
BRANCH   4  20
ATOM     20  C   UNL     1       6.331  22.855  16.995  0.00  0.00    +0.001 A 
ATOM     21  C   UNL     1       5.889  21.528  16.645  0.00  0.00    -0.000 A 
ATOM     22  C   UNL     1       5.550  21.179  15.362  0.00  0.00    -0.004 A 
ATOM     23  C   UNL     1       5.669  22.113  14.319  0.00  0.00    -0.022 A 
ATOM     24  C   UNL     1       6.088  23.414  14.672  0.00  0.00    -0.004 A 
ATOM     25  C   UNL     1       6.448  23.763  15.923  0.00  0.00    -0.000 A 
BRANCH  23  26
ATOM     26  C   UNL     1       5.204  21.675  12.978  0.00  0.00    +0.025 C 
ATOM     27  C   UNL     1       5.618  20.289  12.582  0.00  0.00    +0.022 C 
ATOM     28  C   UNL     1       4.900  19.985  11.270  0.00  0.00    +0.072 C 
ATOM     29  N   UNL     1       5.431  20.825  10.157  0.00  0.00    -0.271 NA
ATOM     30  C   UNL     1       6.841  20.483   9.847  0.00  0.00    +0.090 C 
ATOM     31  C   UNL     1       5.240  22.268  10.444  0.00  0.00    +0.072 C 
ATOM     32  C   UNL     1       5.578  22.693  11.887  0.00  0.00    +0.022 C 
ENDBRANCH  23  26
ENDBRANCH   4  20
TORSDOF 6
ENDMDL
MODEL 2
REMARK VINA RESULT:      -7.3      0.273      2.270
REMARK  Name = 5S88_LU8.pdb
REMARK  6 active torsions:
REMARK  status: ('A' for Active; 'I' for Inactive)
REMARK    1  A    between atoms: _2  and  _3
REMARK    2  A    between atoms: _5  and  _6
REMARK    3  A    between atoms: _10  and  _11
REMARK    4  A    between atoms: _14  and  _15
REMARK    5  A    between atoms: _27  and  _28
REMARK    6  A    between atoms: _30  and  _31
REMARK                            x       y       z     vdW  Elec       q    Type
REMARK                         _______ _______ _______ _____ _____    ______ ____
ROOT
ATOM      1  C   UNL     1       8.337  23.197  20.030  0.00  0.00    +0.015 A 
ATOM      2  C   UNL     1       8.016  22.890  18.716  0.00  0.00    -0.019 A 
ATOM      3  C   UNL     1       9.045  22.231  17.847  0.00  0.00    +0.031 C 
ATOM      4  C   UNL     1       6.718  23.145  18.183  0.00  0.00    +0.015 A 
ATOM      5  C   UNL     1       5.829  23.648  19.092  0.00  0.00    +0.099 A 
ATOM      6  N   UNL     1       6.110  23.920  20.332  0.00  0.00    -0.242 NA
ATOM      7  C   UNL     1       7.338  23.716  20.826  0.00  0.00    +0.099 A 
ENDROOT
BRANCH   1  12
ATOM      8  C   UNL     1      12.036  23.395  20.829  0.00  0.00    +0.175 A 
ATOM      9  C   UNL     1      12.151  22.433  21.811  0.00  0.00    +0.206 A 
ATOM     10  C   UNL     1      11.050  21.682  22.158  0.00  0.00    +0.175 A 
ATOM     11  C   UNL     1       9.833  21.929  21.557  0.00  0.00    +0.040 A 
ATOM     12  C   UNL     1       9.692  22.928  20.581  0.00  0.00    +0.007 A 
ATOM     13  C   UNL     1      10.827  23.642  20.200  0.00  0.00    +0.040 A 
BRANCH   8  15
ATOM     14  C   UNL     1      13.270  24.614  19.194  0.00  0.00    +0.253 C 
ATOM     15  O   UNL     1      13.192  24.036  20.519  0.00  0.00    -0.468 OA
ENDBRANCH   8  15
BRANCH   9  16
ATOM     16  O   UNL     1      13.349  22.221  22.450  0.00  0.00    -0.465 OA
ATOM     17  C   UNL     1      13.676  23.047  23.515  0.00  0.00    +0.253 C 
ENDBRANCH   9  16
BRANCH  10  18
ATOM     18  O   UNL     1      11.244  20.731  23.144  0.00  0.00    -0.468 OA
ATOM     19  C   UNL     1      10.471  19.526  23.179  0.00  0.00    +0.253 C 
ENDBRANCH  10  18
ENDBRANCH   1  12
BRANCH   4  20
ATOM     20  C   UNL     1       6.299  22.864  16.803  0.00  0.00    +0.001 A 
ATOM     21  C   UNL     1       5.874  21.540  16.422  0.00  0.00    -0.000 A 
ATOM     22  C   UNL     1       5.490  21.230  15.142  0.00  0.00    -0.004 A 
ATOM     23  C   UNL     1       5.544  22.204  14.131  0.00  0.00    -0.022 A 
ATOM     24  C   UNL     1       5.946  23.501  14.514  0.00  0.00    -0.004 A 
ATOM     25  C   UNL     1       6.350  23.813  15.762  0.00  0.00    -0.000 A 
BRANCH  23  26
ATOM     26  C   UNL     1       5.033  21.804  12.794  0.00  0.00    +0.025 C 
ATOM     27  C   UNL     1       5.366  20.401  12.379  0.00  0.00    +0.022 C 
ATOM     28  C   UNL     1       4.611  20.148  11.078  0.00  0.00    +0.072 C 
ATOM     29  N   UNL     1       5.167  20.969   9.963  0.00  0.00    -0.271 NA
ATOM     30  C   UNL     1       6.552  20.555   9.626  0.00  0.00    +0.090 C 
ATOM     31  C   UNL     1       5.058  22.417  10.264  0.00  0.00    +0.072 C 
ATOM     32  C   UNL     1       5.443  22.810  11.705  0.00  0.00    +0.022 C 
ENDBRANCH  23  26
ENDBRANCH   4  20
TORSDOF 6
ENDMDL
MODEL 3
REMARK VINA RESULT:      -7.2      7.477      9.349
REMARK  Name = 5S88_LU8.pdb
REMARK  6 active torsions:
REMARK  status: ('A' for Active; 'I' for Inactive)
REMARK    1  A    between atoms: _2  and  _3
REMARK    2  A    between atoms: _5  and  _6
REMARK    3  A    between atoms: _10  and  _11
REMARK    4  A    between atoms: _14  and  _15
REMARK    5  A    between atoms: _27  and  _28
REMARK    6  A    between atoms: _30  and  _31
REMARK                            x       y       z     vdW  Elec       q    Type
REMARK                         _______ _______ _______ _____ _____    ______ ____
ROOT
ATOM      1  C   UNL     1       6.562  14.818  18.891  0.00  0.00    +0.015 A 
ATOM      2  C   UNL     1       6.425  15.596  17.752  0.00  0.00    -0.019 A 
ATOM      3  C   UNL     1       5.669  15.048  16.578  0.00  0.00    +0.031 C 
ATOM      4  C   UNL     1       6.946  16.921  17.683  0.00  0.00    +0.015 A 
ATOM      5  C   UNL     1       7.522  17.358  18.844  0.00  0.00    +0.099 A 
ATOM      6  N   UNL     1       7.637  16.646  19.927  0.00  0.00    -0.242 NA
ATOM      7  C   UNL     1       7.181  15.389  19.983  0.00  0.00    +0.099 A 
ENDROOT
BRANCH   1  12
ATOM      8  C   UNL     1       6.202  11.047  18.788  0.00  0.00    +0.175 A 
ATOM      9  C   UNL     1       4.924  10.885  19.283  0.00  0.00    +0.206 A 
ATOM     10  C   UNL     1       4.166  11.995  19.581  0.00  0.00    +0.175 A 
ATOM     11  C   UNL     1       4.705  13.255  19.427  0.00  0.00    +0.040 A 
ATOM     12  C   UNL     1       6.014  13.436  18.958  0.00  0.00    +0.007 A 
ATOM     13  C   UNL     1       6.751  12.306  18.608  0.00  0.00    +0.040 A 
BRANCH   8  15
ATOM     14  C   UNL     1       7.068   9.653  17.059  0.00  0.00    +0.253 C 
ATOM     15  O   UNL     1       6.842   9.893  18.469  0.00  0.00    -0.468 OA
ENDBRANCH   8  15
BRANCH   9  16
ATOM     16  O   UNL     1       4.404   9.629  19.488  0.00  0.00    -0.465 OA
ATOM     17  C   UNL     1       4.562   9.053  20.740  0.00  0.00    +0.253 C 
ENDBRANCH   9  16
BRANCH  10  18
ATOM     18  O   UNL     1       2.892  11.753  20.065  0.00  0.00    -0.468 OA
ATOM     19  C   UNL     1       2.366  12.487  21.177  0.00  0.00    +0.253 C 
ENDBRANCH  10  18
ENDBRANCH   1  12
BRANCH   4  20
ATOM     20  C   UNL     1       6.858  17.807  16.513  0.00  0.00    +0.001 A 
ATOM     21  C   UNL     1       6.459  19.184  16.666  0.00  0.00    -0.000 A 
ATOM     22  C   UNL     1       6.348  20.041  15.601  0.00  0.00    -0.004 A 
ATOM     23  C   UNL     1       6.581  19.580  14.294  0.00  0.00    -0.022 A 
ATOM     24  C   UNL     1       6.986  18.236  14.153  0.00  0.00    -0.004 A 
ATOM     25  C   UNL     1       7.075  17.376  15.189  0.00  0.00    -0.000 A 
BRANCH  23  26
ATOM     26  C   UNL     1       6.517  20.595  13.210  0.00  0.00    +0.025 C 
ATOM     27  C   UNL     1       5.358  21.543  13.292  0.00  0.00    +0.022 C 
ATOM     28  C   UNL     1       5.580  22.588  12.203  0.00  0.00    +0.072 C 
ATOM     29  N   UNL     1       5.431  21.992  10.844  0.00  0.00    -0.271 NA
ATOM     30  C   UNL     1       4.035  21.552  10.598  0.00  0.00    +0.090 C 
ATOM     31  C   UNL     1       6.421  20.908  10.628  0.00  0.00    +0.072 C 
ATOM     32  C   UNL     1       6.598  19.944  11.819  0.00  0.00    +0.022 C 
ENDBRANCH  23  26
ENDBRANCH   4  20
TORSDOF 6
ENDMDL
MODEL 4
REMARK VINA RESULT:      -7.1      7.289     11.979
REMARK  Name = 5S88_LU8.pdb
REMARK  6 active torsions:
REMARK  status: ('A' for Active; 'I' for Inactive)
REMARK    1  A    between atoms: _2  and  _3
REMARK    2  A    between atoms: _5  and  _6
REMARK    3  A    between atoms: _10  and  _11
REMARK    4  A    between atoms: _14  and  _15
REMARK    5  A    between atoms: _27  and  _28
REMARK    6  A    between atoms: _30  and  _31
REMARK                            x       y       z     vdW  Elec       q    Type
REMARK                         _______ _______ _______ _____ _____    ______ ____
ROOT
ATOM      1  C   UNL     1       5.459  21.290  10.945  0.00  0.00    +0.015 A 
ATOM      2  C   UNL     1       5.647  20.357  11.953  0.00  0.00    -0.019 A 
ATOM      3  C   UNL     1       5.219  18.938  11.726  0.00  0.00    +0.031 C 
ATOM      4  C   UNL     1       6.277  20.702  13.185  0.00  0.00    +0.015 A 
ATOM      5  C   UNL     1       6.722  21.994  13.244  0.00  0.00    +0.099 A 
ATOM      6  N   UNL     1       6.572  22.873  12.297  0.00  0.00    -0.242 NA
ATOM      7  C   UNL     1       5.948  22.562  11.154  0.00  0.00    +0.099 A 
ENDROOT
BRANCH   1  12
ATOM      8  C   UNL     1       4.751  19.864   7.507  0.00  0.00    +0.175 A 
ATOM      9  C   UNL     1       3.409  20.153   7.365  0.00  0.00    +0.206 A 
ATOM     10  C   UNL     1       2.762  20.865   8.351  0.00  0.00    +0.175 A 
ATOM     11  C   UNL     1       3.446  21.241   9.488  0.00  0.00    +0.040 A 
ATOM     12  C   UNL     1       4.801  20.924   9.661  0.00  0.00    +0.007 A 
ATOM     13  C   UNL     1       5.458  20.252   8.632  0.00  0.00    +0.040 A 
BRANCH   8  15
ATOM     14  C   UNL     1       5.642  17.820   6.664  0.00  0.00    +0.253 C 
ATOM     15  O   UNL     1       5.309  19.213   6.453  0.00  0.00    -0.468 OA
ENDBRANCH   8  15
BRANCH   9  16
ATOM     16  O   UNL     1       2.712  19.733   6.258  0.00  0.00    -0.465 OA
ATOM     17  C   UNL     1       2.012  18.538   6.342  0.00  0.00    +0.253 C 
ENDBRANCH   9  16
BRANCH  10  18
ATOM     18  O   UNL     1       1.419  21.124   8.136  0.00  0.00    -0.468 OA
ATOM     19  C   UNL     1       0.962  22.435   7.785  0.00  0.00    +0.253 C 
ENDBRANCH  10  18
ENDBRANCH   1  12
BRANCH   4  20
ATOM     20  C   UNL     1       6.504  19.781  14.308  0.00  0.00    +0.001 A 
ATOM     21  C   UNL     1       6.947  18.431  14.069  0.00  0.00    -0.000 A 
ATOM     22  C   UNL     1       7.156  17.533  15.086  0.00  0.00    -0.004 A 
ATOM     23  C   UNL     1       6.893  17.898  16.417  0.00  0.00    -0.022 A 
ATOM     24  C   UNL     1       6.474  19.226  16.645  0.00  0.00    -0.004 A 
ATOM     25  C   UNL     1       6.241  20.110  15.653  0.00  0.00    -0.000 A 
BRANCH  23  26
ATOM     26  C   UNL     1       7.223  16.892  17.460  0.00  0.00    +0.025 C 
ATOM     27  C   UNL     1       6.480  15.594  17.349  0.00  0.00    +0.022 C 
ATOM     28  C   UNL     1       7.088  14.661  18.393  0.00  0.00    +0.072 C 
ATOM     29  N   UNL     1       6.766  15.117  19.776  0.00  0.00    -0.271 NA
ATOM     30  C   UNL     1       5.311  15.015  20.052  0.00  0.00    +0.090 C 
ATOM     31  C   UNL     1       7.304  16.476  20.028  0.00  0.00    +0.072 C 
ATOM     32  C   UNL     1       7.095  17.479  18.875  0.00  0.00    +0.022 C 
ENDBRANCH  23  26
ENDBRANCH   4  20
TORSDOF 6
ENDMDL
MODEL 5
REMARK VINA RESULT:      -7.0      1.601      1.820
REMARK  Name = 5S88_LU8.pdb
REMARK  6 active torsions:
REMARK  status: ('A' for Active; 'I' for Inactive)
REMARK    1  A    between atoms: _2  and  _3
REMARK    2  A    between atoms: _5  and  _6
REMARK    3  A    between atoms: _10  and  _11
REMARK    4  A    between atoms: _14  and  _15
REMARK    5  A    between atoms: _27  and  _28
REMARK    6  A    between atoms: _30  and  _31
REMARK                            x       y       z     vdW  Elec       q    Type
REMARK                         _______ _______ _______ _____ _____    ______ ____
ROOT
ATOM      1  C   UNL     1       8.344  23.757  18.675  0.00  0.00    +0.015 A 
ATOM      2  C   UNL     1       7.905  23.345  17.426  0.00  0.00    -0.019 A 
ATOM      3  C   UNL     1       8.801  22.488  16.583  0.00  0.00    +0.031 C 
ATOM      4  C   UNL     1       6.608  23.680  16.940  0.00  0.00    +0.015 A 
ATOM      5  C   UNL     1       5.837  24.373  17.832  0.00  0.00    +0.099 A 
ATOM      6  N   UNL     1       6.228  24.746  19.015  0.00  0.00    -0.242 NA
ATOM      7  C   UNL     1       7.458  24.465  19.461  0.00  0.00    +0.099 A 
ENDROOT
BRANCH   1  12
ATOM      8  C   UNL     1      11.256  21.969  20.311  0.00  0.00    +0.175 A 
ATOM      9  C   UNL     1      12.314  22.766  19.924  0.00  0.00    +0.206 A 
ATOM     10  C   UNL     1      12.070  23.910  19.197  0.00  0.00    +0.175 A 
ATOM     11  C   UNL     1      10.781  24.223  18.822  0.00  0.00    +0.040 A 
ATOM     12  C   UNL     1       9.699  23.404  19.179  0.00  0.00    +0.007 A 
ATOM     13  C   UNL     1       9.953  22.280  19.962  0.00  0.00    +0.040 A 
BRANCH   8  15
ATOM     14  C   UNL     1      10.624  19.832  21.156  0.00  0.00    +0.253 C 
ATOM     15  O   UNL     1      11.598  20.899  21.075  0.00  0.00    -0.468 OA
ENDBRANCH   8  15
BRANCH   9  16
ATOM     16  O   UNL     1      13.606  22.427  20.250  0.00  0.00    -0.465 OA
ATOM     17  C   UNL     1      14.286  21.561  19.407  0.00  0.00    +0.253 C 
ENDBRANCH   9  16
BRANCH  10  18
ATOM     18  O   UNL     1      13.180  24.663  18.852  0.00  0.00    -0.468 OA
ATOM     19  C   UNL     1      13.630  24.746  17.495  0.00  0.00    +0.253 C 
ENDBRANCH  10  18
ENDBRANCH   1  12
BRANCH   4  20
ATOM     20  C   UNL     1       6.070  23.297  15.626  0.00  0.00    +0.001 A 
ATOM     21  C   UNL     1       5.790  21.916  15.325  0.00  0.00    -0.000 A 
ATOM     22  C   UNL     1       5.303  21.511  14.107  0.00  0.00    -0.004 A 
ATOM     23  C   UNL     1       5.102  22.448  13.079  0.00  0.00    -0.022 A 
ATOM     24  C   UNL     1       5.364  23.801  13.387  0.00  0.00    -0.004 A 
ATOM     25  C   UNL     1       5.866  24.208  14.570  0.00  0.00    -0.000 A 
BRANCH  23  26
ATOM     26  C   UNL     1       4.496  21.937  11.822  0.00  0.00    +0.025 C 
ATOM     27  C   UNL     1       4.729  20.480  11.551  0.00  0.00    +0.022 C 
ATOM     28  C   UNL     1       3.890  20.133  10.325  0.00  0.00    +0.072 C 
ATOM     29  N   UNL     1       4.425  20.793   9.099  0.00  0.00    -0.271 NA
ATOM     30  C   UNL     1       5.765  20.262   8.742  0.00  0.00    +0.090 C 
ATOM     31  C   UNL     1       4.412  22.270   9.242  0.00  0.00    +0.072 C 
ATOM     32  C   UNL     1       4.898  22.793  10.610  0.00  0.00    +0.022 C 
ENDBRANCH  23  26
ENDBRANCH   4  20
TORSDOF 6
ENDMDL
MODEL 6
REMARK VINA RESULT:      -6.9      7.243     12.004
REMARK  Name = 5S88_LU8.pdb
REMARK  6 active torsions:
REMARK  status: ('A' for Active; 'I' for Inactive)
REMARK    1  A    between atoms: _2  and  _3
REMARK    2  A    between atoms: _5  and  _6
REMARK    3  A    between atoms: _10  and  _11
REMARK    4  A    between atoms: _14  and  _15
REMARK    5  A    between atoms: _27  and  _28
REMARK    6  A    between atoms: _30  and  _31
REMARK                            x       y       z     vdW  Elec       q    Type
REMARK                         _______ _______ _______ _____ _____    ______ ____
ROOT
ATOM      1  C   UNL     1       5.437  21.321  10.925  0.00  0.00    +0.015 A 
ATOM      2  C   UNL     1       5.629  20.389  11.933  0.00  0.00    -0.019 A 
ATOM      3  C   UNL     1       5.201  18.970  11.708  0.00  0.00    +0.031 C 
ATOM      4  C   UNL     1       6.262  20.735  13.163  0.00  0.00    +0.015 A 
ATOM      5  C   UNL     1       6.706  22.027  13.220  0.00  0.00    +0.099 A 
ATOM      6  N   UNL     1       6.553  22.906  12.272  0.00  0.00    -0.242 NA
ATOM      7  C   UNL     1       5.927  22.594  11.131  0.00  0.00    +0.099 A 
ENDROOT
BRANCH   1  12
ATOM      8  C   UNL     1       2.981  21.060   8.052  0.00  0.00    +0.175 A 
ATOM      9  C   UNL     1       3.713  20.331   7.137  0.00  0.00    +0.206 A 
ATOM     10  C   UNL     1       4.965  19.874   7.481  0.00  0.00    +0.175 A 
ATOM     11  C   UNL     1       5.495  20.185   8.715  0.00  0.00    +0.040 A 
ATOM     12  C   UNL     1       4.777  20.954   9.643  0.00  0.00    +0.007 A 
ATOM     13  C   UNL     1       3.489  21.364   9.304  0.00  0.00    +0.040 A 
BRANCH   8  15
ATOM     14  C   UNL     1       1.517  22.820   7.387  0.00  0.00    +0.253 C 
ATOM     15  O   UNL     1       1.736  21.411   7.637  0.00  0.00    -0.468 OA
ENDBRANCH   8  15
BRANCH   9  16
ATOM     16  O   UNL     1       3.209  20.065   5.886  0.00  0.00    -0.465 OA
ATOM     17  C   UNL     1       3.522  20.940   4.856  0.00  0.00    +0.253 C 
ENDBRANCH   9  16
BRANCH  10  18
ATOM     18  O   UNL     1       5.636  19.143   6.514  0.00  0.00    -0.468 OA
ATOM     19  C   UNL     1       5.660  17.711   6.547  0.00  0.00    +0.253 C 
ENDBRANCH  10  18
ENDBRANCH   1  12
BRANCH   4  20
ATOM     20  C   UNL     1       6.492  19.816  14.286  0.00  0.00    +0.001 A 
ATOM     21  C   UNL     1       6.946  18.469  14.048  0.00  0.00    -0.000 A 
ATOM     22  C   UNL     1       7.158  17.572  15.065  0.00  0.00    -0.004 A 
ATOM     23  C   UNL     1       6.889  17.934  16.395  0.00  0.00    -0.022 A 
ATOM     24  C   UNL     1       6.460  19.260  16.623  0.00  0.00    -0.004 A 
ATOM     25  C   UNL     1       6.223  20.142  15.631  0.00  0.00    -0.000 A 
BRANCH  23  26
ATOM     26  C   UNL     1       7.223  16.930  17.439  0.00  0.00    +0.025 C 
ATOM     27  C   UNL     1       6.480  15.631  17.333  0.00  0.00    +0.022 C 
ATOM     28  C   UNL     1       7.093  14.701  18.376  0.00  0.00    +0.072 C 
ATOM     29  N   UNL     1       6.775  15.159  19.760  0.00  0.00    -0.271 NA
ATOM     30  C   UNL     1       5.321  15.057  20.042  0.00  0.00    +0.090 C 
ATOM     31  C   UNL     1       7.314  16.519  20.007  0.00  0.00    +0.072 C 
ATOM     32  C   UNL     1       7.101  17.520  18.854  0.00  0.00    +0.022 C 
ENDBRANCH  23  26
ENDBRANCH   4  20
TORSDOF 6
ENDMDL
MODEL 7
REMARK VINA RESULT:      -6.9      5.388     11.017
REMARK  Name = 5S88_LU8.pdb
REMARK  6 active torsions:
REMARK  status: ('A' for Active; 'I' for Inactive)
REMARK    1  A    between atoms: _2  and  _3
REMARK    2  A    between atoms: _5  and  _6
REMARK    3  A    between atoms: _10  and  _11
REMARK    4  A    between atoms: _14  and  _15
REMARK    5  A    between atoms: _27  and  _28
REMARK    6  A    between atoms: _30  and  _31
REMARK                            x       y       z     vdW  Elec       q    Type
REMARK                         _______ _______ _______ _____ _____    ______ ____
ROOT
ATOM      1  C   UNL     1       4.886  21.219  11.890  0.00  0.00    +0.015 A 
ATOM      2  C   UNL     1       5.531  21.069  13.108  0.00  0.00    -0.019 A 
ATOM      3  C   UNL     1       6.326  19.824  13.367  0.00  0.00    +0.031 C 
ATOM      4  C   UNL     1       5.494  22.088  14.105  0.00  0.00    +0.015 A 
ATOM      5  C   UNL     1       4.831  23.221  13.723  0.00  0.00    +0.099 A 
ATOM      6  N   UNL     1       4.241  23.384  12.575  0.00  0.00    -0.242 NA
ATOM      7  C   UNL     1       4.243  22.415  11.651  0.00  0.00    +0.099 A 
ENDROOT
BRANCH   1  12
ATOM      8  C   UNL     1       4.654  17.891  10.093  0.00  0.00    +0.175 A 
ATOM      9  C   UNL     1       4.882  18.273   8.787  0.00  0.00    +0.206 A 
ATOM     10  C   UNL     1       5.175  19.590   8.507  0.00  0.00    +0.175 A 
ATOM     11  C   UNL     1       5.193  20.520   9.524  0.00  0.00    +0.040 A 
ATOM     12  C   UNL     1       4.930  20.153  10.852  0.00  0.00    +0.007 A 
ATOM     13  C   UNL     1       4.688  18.808  11.129  0.00  0.00    +0.040 A 
BRANCH   8  15
ATOM     14  C   UNL     1       4.944  15.984  11.493  0.00  0.00    +0.253 C 
ATOM     15  O   UNL     1       4.434  16.562  10.269  0.00  0.00    -0.468 OA
ENDBRANCH   8  15
BRANCH   9  16
ATOM     16  O   UNL     1       4.811  17.358   7.764  0.00  0.00    -0.465 OA
ATOM     17  C   UNL     1       3.586  17.165   7.143  0.00  0.00    +0.253 C 
ENDBRANCH   9  16
BRANCH  10  18
ATOM     18  O   UNL     1       5.400  19.896   7.175  0.00  0.00    -0.468 OA
ATOM     19  C   UNL     1       4.580  20.843   6.481  0.00  0.00    +0.253 C 
ENDBRANCH  10  18
ENDBRANCH   1  12
BRANCH   4  20
ATOM     20  C   UNL     1       6.135  22.006  15.425  0.00  0.00    +0.001 A 
ATOM     21  C   UNL     1       5.461  21.368  16.528  0.00  0.00    -0.000 A 
ATOM     22  C   UNL     1       6.015  21.282  17.781  0.00  0.00    -0.004 A 
ATOM     23  C   UNL     1       7.265  21.868  18.042  0.00  0.00    -0.022 A 
ATOM     24  C   UNL     1       7.926  22.477  16.954  0.00  0.00    -0.004 A 
ATOM     25  C   UNL     1       7.382  22.590  15.726  0.00  0.00    -0.000 A 
BRANCH  23  26
ATOM     26  C   UNL     1       7.826  21.658  19.402  0.00  0.00    +0.025 C 
ATOM     27  C   UNL     1       8.946  22.583  19.778  0.00  0.00    +0.022 C 
ATOM     28  C   UNL     1       9.248  22.314  21.250  0.00  0.00    +0.072 C 
ATOM     29  N   UNL     1       9.850  20.962  21.439  0.00  0.00    -0.271 NA
ATOM     30  C   UNL     1      11.190  20.874  20.806  0.00  0.00    +0.090 C 
ATOM     31  C   UNL     1       8.925  19.899  20.974  0.00  0.00    +0.072 C 
ATOM     32  C   UNL     1       8.224  20.191  19.632  0.00  0.00    +0.022 C 
ENDBRANCH  23  26
ENDBRANCH   4  20
TORSDOF 6
ENDMDL
MODEL 8
REMARK VINA RESULT:      -6.8      7.763      9.685
REMARK  Name = 5S88_LU8.pdb
REMARK  6 active torsions:
REMARK  status: ('A' for Active; 'I' for Inactive)
REMARK    1  A    between atoms: _2  and  _3
REMARK    2  A    between atoms: _5  and  _6
REMARK    3  A    between atoms: _10  and  _11
REMARK    4  A    between atoms: _14  and  _15
REMARK    5  A    between atoms: _27  and  _28
REMARK    6  A    between atoms: _30  and  _31
REMARK                            x       y       z     vdW  Elec       q    Type
REMARK                         _______ _______ _______ _____ _____    ______ ____
ROOT
ATOM      1  C   UNL     1       5.388  12.911  16.727  0.00  0.00    +0.015 A 
ATOM      2  C   UNL     1       5.544  14.129  16.083  0.00  0.00    -0.019 A 
ATOM      3  C   UNL     1       5.747  15.369  16.902  0.00  0.00    +0.031 C 
ATOM      4  C   UNL     1       5.559  14.228  14.661  0.00  0.00    +0.015 A 
ATOM      5  C   UNL     1       5.472  13.026  14.015  0.00  0.00    +0.099 A 
ATOM      6  N   UNL     1       5.348  11.874  14.607  0.00  0.00    -0.242 NA
ATOM      7  C   UNL     1       5.297  11.781  15.942  0.00  0.00    +0.099 A 
ENDROOT
BRANCH   1  12
ATOM      8  C   UNL     1       6.428  12.509  20.348  0.00  0.00    +0.175 A 
ATOM      9  C   UNL     1       5.254  12.823  21.003  0.00  0.00    +0.206 A 
ATOM     10  C   UNL     1       4.121  13.096  20.269  0.00  0.00    +0.175 A 
ATOM     11  C   UNL     1       4.179  13.098  18.891  0.00  0.00    +0.040 A 
ATOM     12  C   UNL     1       5.374  12.814  18.212  0.00  0.00    +0.007 A 
ATOM     13  C   UNL     1       6.499  12.486  18.966  0.00  0.00    +0.040 A 
BRANCH   8  15
ATOM     14  C   UNL     1       7.989  10.851  21.052  0.00  0.00    +0.253 C 
ATOM     15  O   UNL     1       7.470  12.197  21.163  0.00  0.00    -0.468 OA
ENDBRANCH   8  15
BRANCH   9  16
ATOM     16  O   UNL     1       5.207  12.874  22.375  0.00  0.00    -0.465 OA
ATOM     17  C   UNL     1       4.921  11.704  23.063  0.00  0.00    +0.253 C 
ENDBRANCH   9  16
BRANCH  10  18
ATOM     18  O   UNL     1       2.980  13.394  20.995  0.00  0.00    -0.468 OA
ATOM     19  C   UNL     1       1.883  12.477  21.066  0.00  0.00    +0.253 C 
ENDBRANCH  10  18
ENDBRANCH   1  12
BRANCH   4  20
ATOM     20  C   UNL     1       5.704  15.477  13.899  0.00  0.00    +0.001 A 
ATOM     21  C   UNL     1       4.979  15.672  12.669  0.00  0.00    -0.000 A 
ATOM     22  C   UNL     1       5.096  16.814  11.918  0.00  0.00    -0.004 A 
ATOM     23  C   UNL     1       5.982  17.832  12.311  0.00  0.00    -0.022 A 
ATOM     24  C   UNL     1       6.677  17.640  13.525  0.00  0.00    -0.004 A 
ATOM     25  C   UNL     1       6.590  16.512  14.259  0.00  0.00    -0.000 A 
BRANCH  23  26
ATOM     26  C   UNL     1       5.986  19.067  11.485  0.00  0.00    +0.025 C 
ATOM     27  C   UNL     1       6.640  20.257  12.122  0.00  0.00    +0.022 C 
ATOM     28  C   UNL     1       6.688  21.344  11.052  0.00  0.00    +0.072 C 
ATOM     29  N   UNL     1       5.320  21.844  10.730  0.00  0.00    -0.271 NA
ATOM     30  C   UNL     1       4.716  22.549  11.888  0.00  0.00    +0.090 C 
ATOM     31  C   UNL     1       4.462  20.750  10.213  0.00  0.00    +0.072 C 
ATOM     32  C   UNL     1       4.576  19.418  10.982  0.00  0.00    +0.022 C 
ENDBRANCH  23  26
ENDBRANCH   4  20
TORSDOF 6
ENDMDL
MODEL 9
REMARK VINA RESULT:      -6.7      3.915      7.615
REMARK  Name = 5S88_LU8.pdb
REMARK  6 active torsions:
REMARK  status: ('A' for Active; 'I' for Inactive)
REMARK    1  A    between atoms: _2  and  _3
REMARK    2  A    between atoms: _5  and  _6
REMARK    3  A    between atoms: _10  and  _11
REMARK    4  A    between atoms: _14  and  _15
REMARK    5  A    between atoms: _27  and  _28
REMARK    6  A    between atoms: _30  and  _31
REMARK                            x       y       z     vdW  Elec       q    Type
REMARK                         _______ _______ _______ _____ _____    ______ ____
ROOT
ATOM      1  C   UNL     1       5.527  21.807  13.625  0.00  0.00    +0.015 A 
ATOM      2  C   UNL     1       5.666  20.861  12.621  0.00  0.00    -0.019 A 
ATOM      3  C   UNL     1       6.536  19.663  12.860  0.00  0.00    +0.031 C 
ATOM      4  C   UNL     1       4.971  20.976  11.381  0.00  0.00    +0.015 A 
ATOM      5  C   UNL     1       4.126  22.049  11.311  0.00  0.00    +0.099 A 
ATOM      6  N   UNL     1       3.968  22.931  12.254  0.00  0.00    -0.242 NA
ATOM      7  C   UNL     1       4.647  22.846  13.405  0.00  0.00    +0.099 A 
ENDROOT
BRANCH   1  12
ATOM      8  C   UNL     1       7.864  22.403  16.547  0.00  0.00    +0.175 A 
ATOM      9  C   UNL     1       7.431  21.443  17.439  0.00  0.00    +0.206 A 
ATOM     10  C   UNL     1       6.436  20.569  17.063  0.00  0.00    +0.175 A 
ATOM     11  C   UNL     1       5.849  20.689  15.821  0.00  0.00    +0.040 A 
ATOM     12  C   UNL     1       6.254  21.681  14.917  0.00  0.00    +0.007 A 
ATOM     13  C   UNL     1       7.301  22.524  15.288  0.00  0.00    +0.040 A 
BRANCH   8  15
ATOM     14  C   UNL     1       9.828  23.634  15.990  0.00  0.00    +0.253 C 
ATOM     15  O   UNL     1       8.890  23.174  16.992  0.00  0.00    -0.468 OA
ENDBRANCH   8  15
BRANCH   9  16
ATOM     16  O   UNL     1       7.977  21.356  18.697  0.00  0.00    -0.465 OA
ATOM     17  C   UNL     1       7.452  22.164  19.695  0.00  0.00    +0.253 C 
ENDBRANCH   9  16
BRANCH  10  18
ATOM     18  O   UNL     1       6.060  19.628  18.007  0.00  0.00    -0.468 OA
ATOM     19  C   UNL     1       6.586  18.296  17.981  0.00  0.00    +0.253 C 
ENDBRANCH  10  18
ENDBRANCH   1  12
BRANCH   4  20
ATOM     20  C   UNL     1       5.072  20.030  10.262  0.00  0.00    +0.001 A 
ATOM     21  C   UNL     1       6.015  20.256   9.195  0.00  0.00    -0.000 A 
ATOM     22  C   UNL     1       6.133  19.408   8.123  0.00  0.00    -0.004 A 
ATOM     23  C   UNL     1       5.287  18.292   8.007  0.00  0.00    -0.022 A 
ATOM     24  C   UNL     1       4.377  18.068   9.063  0.00  0.00    -0.004 A 
ATOM     25  C   UNL     1       4.234  18.907  10.109  0.00  0.00    -0.000 A 
BRANCH  23  26
ATOM     26  C   UNL     1       5.537  17.384   6.858  0.00  0.00    +0.025 C 
ATOM     27  C   UNL     1       5.581  18.053   5.516  0.00  0.00    +0.022 C 
ATOM     28  C   UNL     1       6.015  16.984   4.518  0.00  0.00    +0.072 C 
ATOM     29  N   UNL     1       4.957  15.947   4.343  0.00  0.00    -0.271 NA
ATOM     30  C   UNL     1       3.743  16.517   3.707  0.00  0.00    +0.090 C 
ATOM     31  C   UNL     1       4.665  15.263   5.627  0.00  0.00    +0.072 C 
ATOM     32  C   UNL     1       4.559  16.197   6.849  0.00  0.00    +0.022 C 
ENDBRANCH  23  26
ENDBRANCH   4  20
TORSDOF 6
ENDMDL
