MODEL 1
REMARK VINA RESULT:      -8.4      0.000      0.000
REMARK  Name = 4DYM_IYZ.pdb
REMARK  4 active torsions:
REMARK  status: ('A' for Active; 'I' for Inactive)
REMARK    1  A    between atoms: _11  and  _18
REMARK    2  A    between atoms: _11  and  _21
REMARK    3  A    between atoms: _12  and  _13
REMARK    4  A    between atoms: _14  and  _16
REMARK                            x       y       z     vdW  Elec       q    Type
REMARK                         _______ _______ _______ _____ _____    ______ ____
ROOT
ATOM      1  C   UNL     1       6.417  27.001  16.026  0.00  0.00    +0.104 A 
ATOM      2  N   UNL     1       6.013  26.828  14.702  0.00  0.00    -0.210 N 
ATOM      3  N   UNL     1       5.492  25.878  14.096  0.00  0.00    -0.147 NA
ATOM      4  C   UNL     1       5.142  25.923  12.787  0.00  0.00    +0.168 A 
ATOM      5  N   UNL     1       4.621  24.819  12.195  0.00  0.00    -0.219 NA
ATOM      6  C   UNL     1       5.335  27.109  12.064  0.00  0.00    +0.041 A 
ATOM      7  C   UNL     1       5.882  28.183  12.727  0.00  0.00    +0.042 A 
ATOM      8  C   UNL     1       6.235  28.049  14.066  0.00  0.00    +0.164 A 
ATOM      9  N   UNL     1       6.798  28.870  14.961  0.00  0.00    -0.223 NA
ATOM     10  C   UNL     1       6.879  28.261  16.151  0.00  0.00    +0.120 A 
ENDROOT
BRANCH   1  13
ATOM     11  C   UNL     1       5.785  25.341  19.276  0.00  0.00    +0.035 A 
ATOM     12  C   UNL     1       5.899  26.303  18.288  0.00  0.00    +0.004 A 
ATOM     13  C   UNL     1       6.296  25.994  16.984  0.00  0.00    +0.019 A 
ATOM     14  C   UNL     1       6.647  24.670  16.674  0.00  0.00    +0.002 A 
ATOM     15  C   UNL     1       6.547  23.683  17.673  0.00  0.00    +0.000 A 
ATOM     16  C   UNL     1       6.105  24.024  18.970  0.00  0.00    +0.003 A 
BRANCH  11  18
ATOM     17  C   UNL     1       5.774  25.019  21.922  0.00  0.00    +0.077 C 
ATOM     18  C   UNL     1       5.268  25.762  20.691  0.00  0.00    +0.173 C 
ATOM     19  O   UNL     1       4.505  26.718  20.850  0.00  0.00    -0.291 OA
ENDBRANCH  11  18
ENDBRANCH   1  13
BRANCH   5  20
ATOM     20  C   UNL     1       4.002  23.736  12.965  0.00  0.00    +0.114 C 
BRANCH  20  21
ATOM     21  C   UNL     1       4.850  22.446  12.965  0.00  0.00    +0.022 C 
ATOM     22  C   UNL     1       6.285  22.550  13.499  0.00  0.00    +0.002 C 
ATOM     23  C   UNL     1       5.216  21.918  14.374  0.00  0.00    +0.002 C 
ENDBRANCH  20  21
ENDBRANCH   5  20
TORSDOF 4
ENDMDL
MODEL 2
REMARK VINA RESULT:      -8.1      1.714      2.509
REMARK  Name = 4DYM_IYZ.pdb
REMARK  4 active torsions:
REMARK  status: ('A' for Active; 'I' for Inactive)
REMARK    1  A    between atoms: _11  and  _18
REMARK    2  A    between atoms: _11  and  _21
REMARK    3  A    between atoms: _12  and  _13
REMARK    4  A    between atoms: _14  and  _16
REMARK                            x       y       z     vdW  Elec       q    Type
REMARK                         _______ _______ _______ _____ _____    ______ ____
ROOT
ATOM      1  C   UNL     1       6.514  26.880  16.314  0.00  0.00    +0.104 A 
ATOM      2  N   UNL     1       6.118  26.798  14.978  0.00  0.00    -0.210 N 
ATOM      3  N   UNL     1       5.571  25.903  14.313  0.00  0.00    -0.147 NA
ATOM      4  C   UNL     1       5.237  26.037  13.006  0.00  0.00    +0.168 A 
ATOM      5  N   UNL     1       4.684  24.989  12.347  0.00  0.00    -0.219 NA
ATOM      6  C   UNL     1       5.478  27.255  12.356  0.00  0.00    +0.041 A 
ATOM      7  C   UNL     1       6.056  28.269  13.084  0.00  0.00    +0.042 A 
ATOM      8  C   UNL     1       6.389  28.045  14.416  0.00  0.00    +0.164 A 
ATOM      9  N   UNL     1       6.971  28.792  15.362  0.00  0.00    -0.223 NA
ATOM     10  C   UNL     1       7.019  28.113  16.516  0.00  0.00    +0.120 A 
ENDROOT
BRANCH   1  13
ATOM     11  C   UNL     1       6.643  23.462  17.733  0.00  0.00    +0.035 A 
ATOM     12  C   UNL     1       6.803  24.542  16.884  0.00  0.00    +0.004 A 
ATOM     13  C   UNL     1       6.348  25.824  17.210  0.00  0.00    +0.019 A 
ATOM     14  C   UNL     1       5.653  26.014  18.415  0.00  0.00    +0.002 A 
ATOM     15  C   UNL     1       5.473  24.920  19.283  0.00  0.00    +0.000 A 
ATOM     16  C   UNL     1       5.979  23.647  18.939  0.00  0.00    +0.003 A 
BRANCH  11  18
ATOM     17  C   UNL     1       6.449  20.805  17.604  0.00  0.00    +0.077 C 
ATOM     18  C   UNL     1       7.242  22.076  17.321  0.00  0.00    +0.173 C 
ATOM     19  O   UNL     1       8.315  21.982  16.719  0.00  0.00    -0.291 OA
ENDBRANCH  11  18
ENDBRANCH   1  13
BRANCH   5  20
ATOM     20  C   UNL     1       4.019  23.885  13.047  0.00  0.00    +0.114 C 
BRANCH  20  21
ATOM     21  C   UNL     1       4.814  22.565  12.969  0.00  0.00    +0.022 C 
ATOM     22  C   UNL     1       6.232  22.564  13.557  0.00  0.00    +0.002 C 
ATOM     23  C   UNL     1       5.107  21.908  14.340  0.00  0.00    +0.002 C 
ENDBRANCH  20  21
ENDBRANCH   5  20
TORSDOF 4
ENDMDL
MODEL 3
REMARK VINA RESULT:      -8.0      1.606      2.986
REMARK  Name = 4DYM_IYZ.pdb
REMARK  4 active torsions:
REMARK  status: ('A' for Active; 'I' for Inactive)
REMARK    1  A    between atoms: _11  and  _18
REMARK    2  A    between atoms: _11  and  _21
REMARK    3  A    between atoms: _12  and  _13
REMARK    4  A    between atoms: _14  and  _16
REMARK                            x       y       z     vdW  Elec       q    Type
REMARK                         _______ _______ _______ _____ _____    ______ ____
ROOT
ATOM      1  C   UNL     1       6.148  27.525  13.860  0.00  0.00    +0.104 A 
ATOM      2  N   UNL     1       5.980  26.309  13.197  0.00  0.00    -0.210 N 
ATOM      3  N   UNL     1       6.203  25.132  13.522  0.00  0.00    -0.147 NA
ATOM      4  C   UNL     1       5.935  24.069  12.725  0.00  0.00    +0.168 A 
ATOM      5  N   UNL     1       6.256  22.820  13.146  0.00  0.00    -0.219 NA
ATOM      6  C   UNL     1       5.338  24.280  11.475  0.00  0.00    +0.041 A 
ATOM      7  C   UNL     1       5.055  25.575  11.109  0.00  0.00    +0.042 A 
ATOM      8  C   UNL     1       5.381  26.614  11.975  0.00  0.00    +0.164 A 
ATOM      9  N   UNL     1       5.266  27.946  11.906  0.00  0.00    -0.223 NA
ATOM     10  C   UNL     1       5.692  28.500  13.049  0.00  0.00    +0.120 A 
ENDROOT
BRANCH   1  13
ATOM     11  C   UNL     1       6.645  26.883  17.474  0.00  0.00    +0.035 A 
ATOM     12  C   UNL     1       6.162  26.820  16.178  0.00  0.00    +0.004 A 
ATOM     13  C   UNL     1       6.680  27.609  15.147  0.00  0.00    +0.019 A 
ATOM     14  C   UNL     1       7.688  28.540  15.443  0.00  0.00    +0.002 A 
ATOM     15  C   UNL     1       8.180  28.623  16.759  0.00  0.00    +0.000 A 
ATOM     16  C   UNL     1       7.659  27.784  17.769  0.00  0.00    +0.003 A 
BRANCH  11  18
ATOM     17  C   UNL     1       6.003  24.419  18.267  0.00  0.00    +0.077 C 
ATOM     18  C   UNL     1       6.054  25.916  18.553  0.00  0.00    +0.173 C 
ATOM     19  O   UNL     1       5.679  26.320  19.656  0.00  0.00    -0.291 OA
ENDBRANCH  11  18
ENDBRANCH   1  13
BRANCH   5  20
ATOM     20  C   UNL     1       6.459  22.497  14.562  0.00  0.00    +0.114 C 
BRANCH  20  21
ATOM     21  C   UNL     1       5.604  21.300  15.028  0.00  0.00    +0.022 C 
ATOM     22  C   UNL     1       6.340  20.127  15.691  0.00  0.00    +0.002 C 
ATOM     23  C   UNL     1       5.562  21.099  16.562  0.00  0.00    +0.002 C 
ENDBRANCH  20  21
ENDBRANCH   5  20
TORSDOF 4
ENDMDL
MODEL 4
REMARK VINA RESULT:      -7.8      2.931      6.307
REMARK  Name = 4DYM_IYZ.pdb
REMARK  4 active torsions:
REMARK  status: ('A' for Active; 'I' for Inactive)
REMARK    1  A    between atoms: _11  and  _18
REMARK    2  A    between atoms: _11  and  _21
REMARK    3  A    between atoms: _12  and  _13
REMARK    4  A    between atoms: _14  and  _16
REMARK                            x       y       z     vdW  Elec       q    Type
REMARK                         _______ _______ _______ _____ _____    ______ ____
ROOT
ATOM      1  C   UNL     1       7.184  23.343  14.397  0.00  0.00    +0.104 A 
ATOM      2  N   UNL     1       6.803  22.635  15.538  0.00  0.00    -0.210 N 
ATOM      3  N   UNL     1       6.847  22.900  16.750  0.00  0.00    -0.147 NA
ATOM      4  C   UNL     1       6.388  22.069  17.718  0.00  0.00    +0.168 A 
ATOM      5  N   UNL     1       6.522  22.422  19.021  0.00  0.00    -0.219 NA
ATOM      6  C   UNL     1       5.792  20.854  17.355  0.00  0.00    +0.041 A 
ATOM      7  C   UNL     1       5.705  20.556  16.014  0.00  0.00    +0.042 A 
ATOM      8  C   UNL     1       6.220  21.453  15.084  0.00  0.00    +0.164 A 
ATOM      9  N   UNL     1       6.315  21.446  13.748  0.00  0.00    -0.223 NA
ATOM     10  C   UNL     1       6.861  22.594  13.325  0.00  0.00    +0.120 A 
ENDROOT
BRANCH   1  13
ATOM     11  C   UNL     1       7.503  27.032  14.413  0.00  0.00    +0.035 A 
ATOM     12  C   UNL     1       6.969  25.757  14.373  0.00  0.00    +0.004 A 
ATOM     13  C   UNL     1       7.764  24.609  14.462  0.00  0.00    +0.019 A 
ATOM     14  C   UNL     1       9.159  24.752  14.536  0.00  0.00    +0.002 A 
ATOM     15  C   UNL     1       9.716  26.044  14.565  0.00  0.00    +0.000 A 
ATOM     16  C   UNL     1       8.880  27.182  14.512  0.00  0.00    +0.003 A 
BRANCH  11  18
ATOM     17  C   UNL     1       5.435  28.316  13.323  0.00  0.00    +0.077 C 
ATOM     18  C   UNL     1       6.536  28.262  14.376  0.00  0.00    +0.173 C 
ATOM     19  O   UNL     1       6.598  29.167  15.212  0.00  0.00    -0.291 OA
ENDBRANCH  11  18
ENDBRANCH   1  13
BRANCH   5  20
ATOM     20  C   UNL     1       6.717  23.813  19.440  0.00  0.00    +0.114 C 
BRANCH  20  21
ATOM     21  C   UNL     1       5.450  24.674  19.253  0.00  0.00    +0.022 C 
ATOM     22  C   UNL     1       5.424  26.044  19.945  0.00  0.00    +0.002 C 
ATOM     23  C   UNL     1       5.673  25.978  18.447  0.00  0.00    +0.002 C 
ENDBRANCH  20  21
ENDBRANCH   5  20
TORSDOF 4
ENDMDL
MODEL 5
REMARK VINA RESULT:      -7.5      1.820      4.327
REMARK  Name = 4DYM_IYZ.pdb
REMARK  4 active torsions:
REMARK  status: ('A' for Active; 'I' for Inactive)
REMARK    1  A    between atoms: _11  and  _18
REMARK    2  A    between atoms: _11  and  _21
REMARK    3  A    between atoms: _12  and  _13
REMARK    4  A    between atoms: _14  and  _16
REMARK                            x       y       z     vdW  Elec       q    Type
REMARK                         _______ _______ _______ _____ _____    ______ ____
ROOT
ATOM      1  C   UNL     1       6.179  22.644  15.832  0.00  0.00    +0.104 A 
ATOM      2  N   UNL     1       5.865  23.683  14.954  0.00  0.00    -0.210 N 
ATOM      3  N   UNL     1       6.170  24.886  14.926  0.00  0.00    -0.147 NA
ATOM      4  C   UNL     1       5.777  25.737  13.948  0.00  0.00    +0.168 A 
ATOM      5  N   UNL     1       6.118  27.048  14.025  0.00  0.00    -0.219 NA
ATOM      6  C   UNL     1       5.016  25.250  12.877  0.00  0.00    +0.041 A 
ATOM      7  C   UNL     1       4.694  23.912  12.873  0.00  0.00    +0.042 A 
ATOM      8  C   UNL     1       5.118  23.108  13.927  0.00  0.00    +0.164 A 
ATOM      9  N   UNL     1       4.952  21.814  14.226  0.00  0.00    -0.223 NA
ATOM     10  C   UNL     1       5.616  21.518  15.352  0.00  0.00    +0.120 A 
ENDROOT
BRANCH   1  13
ATOM     11  C   UNL     1       7.174  23.654  19.254  0.00  0.00    +0.035 A 
ATOM     12  C   UNL     1       6.425  23.427  18.113  0.00  0.00    +0.004 A 
ATOM     13  C   UNL     1       6.967  22.836  16.967  0.00  0.00    +0.019 A 
ATOM     14  C   UNL     1       8.333  22.511  16.949  0.00  0.00    +0.002 A 
ATOM     15  C   UNL     1       9.110  22.749  18.100  0.00  0.00    +0.000 A 
ATOM     16  C   UNL     1       8.520  23.312  19.253  0.00  0.00    +0.003 A 
BRANCH  11  18
ATOM     17  C   UNL     1       5.597  25.496  20.362  0.00  0.00    +0.077 C 
ATOM     18  C   UNL     1       6.472  24.258  20.515  0.00  0.00    +0.173 C 
ATOM     19  O   UNL     1       6.557  23.728  21.626  0.00  0.00    -0.291 OA
ENDBRANCH  11  18
ENDBRANCH   1  13
BRANCH   5  20
ATOM     20  C   UNL     1       7.240  27.519  14.843  0.00  0.00    +0.114 C 
BRANCH  20  21
ATOM     21  C   UNL     1       6.795  28.017  16.234  0.00  0.00    +0.022 C 
ATOM     22  C   UNL     1       7.246  27.198  17.451  0.00  0.00    +0.002 C 
ATOM     23  C   UNL     1       7.949  28.509  17.141  0.00  0.00    +0.002 C 
ENDBRANCH  20  21
ENDBRANCH   5  20
TORSDOF 4
ENDMDL
MODEL 6
REMARK VINA RESULT:      -7.5     10.656     12.443
REMARK  Name = 4DYM_IYZ.pdb
REMARK  4 active torsions:
REMARK  status: ('A' for Active; 'I' for Inactive)
REMARK    1  A    between atoms: _11  and  _18
REMARK    2  A    between atoms: _11  and  _21
REMARK    3  A    between atoms: _12  and  _13
REMARK    4  A    between atoms: _14  and  _16
REMARK                            x       y       z     vdW  Elec       q    Type
REMARK                         _______ _______ _______ _____ _____    ______ ____
ROOT
ATOM      1  C   UNL     1      17.872  23.071  18.611  0.00  0.00    +0.104 A 
ATOM      2  N   UNL     1      16.930  23.440  19.573  0.00  0.00    -0.210 N 
ATOM      3  N   UNL     1      15.734  23.764  19.503  0.00  0.00    -0.147 NA
ATOM      4  C   UNL     1      14.973  24.064  20.583  0.00  0.00    +0.168 A 
ATOM      5  N   UNL     1      13.685  24.454  20.407  0.00  0.00    -0.219 NA
ATOM      6  C   UNL     1      15.533  23.975  21.865  0.00  0.00    +0.041 A 
ATOM      7  C   UNL     1      16.849  23.587  21.966  0.00  0.00    +0.042 A 
ATOM      8  C   UNL     1      17.569  23.318  20.806  0.00  0.00    +0.164 A 
ATOM      9  N   UNL     1      18.836  22.957  20.568  0.00  0.00    -0.223 NA
ATOM     10  C   UNL     1      19.018  22.772  19.253  0.00  0.00    +0.120 A 
ENDROOT
BRANCH   1  13
ATOM     11  C   UNL     1      17.091  24.211  15.174  0.00  0.00    +0.035 A 
ATOM     12  C   UNL     1      17.408  24.208  16.521  0.00  0.00    +0.004 A 
ATOM     13  C   UNL     1      17.572  23.025  17.249  0.00  0.00    +0.019 A 
ATOM     14  C   UNL     1      17.353  21.795  16.608  0.00  0.00    +0.002 A 
ATOM     15  C   UNL     1      17.018  21.784  15.241  0.00  0.00    +0.000 A 
ATOM     16  C   UNL     1      16.898  22.998  14.527  0.00  0.00    +0.003 A 
BRANCH  11  18
ATOM     17  C   UNL     1      17.604  25.709  13.029  0.00  0.00    +0.077 C 
ATOM     18  C   UNL     1      16.993  25.578  14.420  0.00  0.00    +0.173 C 
ATOM     19  O   UNL     1      16.384  26.542  14.891  0.00  0.00    -0.291 OA
ENDBRANCH  11  18
ENDBRANCH   1  13
BRANCH   5  20
ATOM     20  C   UNL     1      12.935  24.149  19.185  0.00  0.00    +0.114 C 
BRANCH  20  21
ATOM     21  C   UNL     1      12.540  25.417  18.398  0.00  0.00    +0.022 C 
ATOM     22  C   UNL     1      13.534  26.586  18.405  0.00  0.00    +0.002 C 
ATOM     23  C   UNL     1      13.430  25.712  17.166  0.00  0.00    +0.002 C 
ENDBRANCH  20  21
ENDBRANCH   5  20
TORSDOF 4
ENDMDL
MODEL 7
REMARK VINA RESULT:      -7.4      2.995      6.215
REMARK  Name = 4DYM_IYZ.pdb
REMARK  4 active torsions:
REMARK  status: ('A' for Active; 'I' for Inactive)
REMARK    1  A    between atoms: _11  and  _18
REMARK    2  A    between atoms: _11  and  _21
REMARK    3  A    between atoms: _12  and  _13
REMARK    4  A    between atoms: _14  and  _16
REMARK                            x       y       z     vdW  Elec       q    Type
REMARK                         _______ _______ _______ _____ _____    ______ ____
ROOT
ATOM      1  C   UNL     1       5.486  24.799  12.427  0.00  0.00    +0.104 A 
ATOM      2  N   UNL     1       5.631  25.911  13.258  0.00  0.00    -0.210 N 
ATOM      3  N   UNL     1       5.900  26.035  14.463  0.00  0.00    -0.147 NA
ATOM      4  C   UNL     1       6.026  27.233  15.085  0.00  0.00    +0.168 A 
ATOM      5  N   UNL     1       6.275  27.271  16.418  0.00  0.00    -0.219 NA
ATOM      6  C   UNL     1       5.888  28.412  14.340  0.00  0.00    +0.041 A 
ATOM      7  C   UNL     1       5.621  28.295  12.996  0.00  0.00    +0.042 A 
ATOM      8  C   UNL     1       5.484  27.029  12.437  0.00  0.00    +0.164 A 
ATOM      9  N   UNL     1       5.205  26.587  11.205  0.00  0.00    -0.223 NA
ATOM     10  C   UNL     1       5.239  25.248  11.181  0.00  0.00    +0.120 A 
ENDROOT
BRANCH   1  13
ATOM     11  C   UNL     1       6.035  21.136  12.427  0.00  0.00    +0.035 A 
ATOM     12  C   UNL     1       5.912  22.450  12.011  0.00  0.00    +0.004 A 
ATOM     13  C   UNL     1       5.620  23.492  12.896  0.00  0.00    +0.019 A 
ATOM     14  C   UNL     1       5.386  23.192  14.248  0.00  0.00    +0.002 A 
ATOM     15  C   UNL     1       5.496  21.857  14.683  0.00  0.00    +0.000 A 
ATOM     16  C   UNL     1       5.831  20.835  13.767  0.00  0.00    +0.003 A 
BRANCH  11  18
ATOM     17  C   UNL     1       7.213  20.445  10.137  0.00  0.00    +0.077 C 
ATOM     18  C   UNL     1       6.432  20.041  11.382  0.00  0.00    +0.173 C 
ATOM     19  O   UNL     1       6.182  18.846  11.561  0.00  0.00    -0.291 OA
ENDBRANCH  11  18
ENDBRANCH   1  13
BRANCH   5  20
ATOM     20  C   UNL     1       6.852  26.134  17.141  0.00  0.00    +0.114 C 
BRANCH  20  21
ATOM     21  C   UNL     1       5.794  25.325  17.921  0.00  0.00    +0.022 C 
ATOM     22  C   UNL     1       6.167  23.895  18.334  0.00  0.00    +0.002 C 
ATOM     23  C   UNL     1       6.185  24.995  19.382  0.00  0.00    +0.002 C 
ENDBRANCH  20  21
ENDBRANCH   5  20
TORSDOF 4
ENDMDL
MODEL 8
REMARK VINA RESULT:      -7.4      2.607      5.324
REMARK  Name = 4DYM_IYZ.pdb
REMARK  4 active torsions:
REMARK  status: ('A' for Active; 'I' for Inactive)
REMARK    1  A    between atoms: _11  and  _18
REMARK    2  A    between atoms: _11  and  _21
REMARK    3  A    between atoms: _12  and  _13
REMARK    4  A    between atoms: _14  and  _16
REMARK                            x       y       z     vdW  Elec       q    Type
REMARK                         _______ _______ _______ _____ _____    ______ ____
ROOT
ATOM      1  C   UNL     1       5.909  26.054  14.292  0.00  0.00    +0.104 A 
ATOM      2  N   UNL     1       6.308  26.331  15.600  0.00  0.00    -0.210 N 
ATOM      3  N   UNL     1       6.339  25.647  16.636  0.00  0.00    -0.147 NA
ATOM      4  C   UNL     1       6.800  26.106  17.825  0.00  0.00    +0.168 A 
ATOM      5  N   UNL     1       6.751  25.302  18.917  0.00  0.00    -0.219 NA
ATOM      6  C   UNL     1       7.310  27.409  17.908  0.00  0.00    +0.041 A 
ATOM      7  C   UNL     1       7.313  28.172  16.764  0.00  0.00    +0.042 A 
ATOM      8  C   UNL     1       6.802  27.634  15.587  0.00  0.00    +0.164 A 
ATOM      9  N   UNL     1       6.639  28.112  14.347  0.00  0.00    -0.223 NA
ATOM     10  C   UNL     1       6.136  27.157  13.553  0.00  0.00    +0.120 A 
ENDROOT
BRANCH   1  13
ATOM     11  C   UNL     1       5.381  22.390  14.187  0.00  0.00    +0.035 A 
ATOM     12  C   UNL     1       5.841  23.644  14.544  0.00  0.00    +0.004 A 
ATOM     13  C   UNL     1       5.402  24.811  13.911  0.00  0.00    +0.019 A 
ATOM     14  C   UNL     1       4.505  24.706  12.836  0.00  0.00    +0.002 A 
ATOM     15  C   UNL     1       4.038  23.434  12.454  0.00  0.00    +0.000 A 
ATOM     16  C   UNL     1       4.474  22.279  13.141  0.00  0.00    +0.003 A 
BRANCH  11  18
ATOM     17  C   UNL     1       5.430  20.966  16.441  0.00  0.00    +0.077 C 
ATOM     18  C   UNL     1       5.873  21.142  14.993  0.00  0.00    +0.173 C 
ATOM     19  O   UNL     1       6.564  20.260  14.476  0.00  0.00    -0.291 OA
ENDBRANCH  11  18
ENDBRANCH   1  13
BRANCH   5  20
ATOM     20  C   UNL     1       6.653  23.843  18.811  0.00  0.00    +0.114 C 
BRANCH  20  21
ATOM     21  C   UNL     1       8.011  23.139  19.015  0.00  0.00    +0.022 C 
ATOM     22  C   UNL     1       8.017  21.604  18.990  0.00  0.00    +0.002 C 
ATOM     23  C   UNL     1       8.526  22.364  17.777  0.00  0.00    +0.002 C 
ENDBRANCH  20  21
ENDBRANCH   5  20
TORSDOF 4
ENDMDL
MODEL 9
REMARK VINA RESULT:      -7.1      2.051      4.296
REMARK  Name = 4DYM_IYZ.pdb
REMARK  4 active torsions:
REMARK  status: ('A' for Active; 'I' for Inactive)
REMARK    1  A    between atoms: _11  and  _18
REMARK    2  A    between atoms: _11  and  _21
REMARK    3  A    between atoms: _12  and  _13
REMARK    4  A    between atoms: _14  and  _16
REMARK                            x       y       z     vdW  Elec       q    Type
REMARK                         _______ _______ _______ _____ _____    ______ ____
ROOT
ATOM      1  C   UNL     1       6.639  22.542  16.601  0.00  0.00    +0.104 A 
ATOM      2  N   UNL     1       6.093  22.255  15.349  0.00  0.00    -0.210 N 
ATOM      3  N   UNL     1       5.432  22.928  14.542  0.00  0.00    -0.147 NA
ATOM      4  C   UNL     1       5.013  22.461  13.340  0.00  0.00    +0.168 A 
ATOM      5  N   UNL     1       4.254  23.253  12.543  0.00  0.00    -0.219 NA
ATOM      6  C   UNL     1       5.365  21.163  12.946  0.00  0.00    +0.041 A 
ATOM      7  C   UNL     1       6.124  20.412  13.814  0.00  0.00    +0.042 A 
ATOM      8  C   UNL     1       6.495  20.957  15.039  0.00  0.00    +0.164 A 
ATOM      9  N   UNL     1       7.187  20.491  16.086  0.00  0.00    -0.223 NA
ATOM     10  C   UNL     1       7.309  21.449  17.015  0.00  0.00    +0.120 A 
ENDROOT
BRANCH   1  13
ATOM     11  C   UNL     1       5.992  25.070  19.228  0.00  0.00    +0.035 A 
ATOM     12  C   UNL     1       6.173  23.862  18.579  0.00  0.00    +0.004 A 
ATOM     13  C   UNL     1       6.485  23.783  17.218  0.00  0.00    +0.019 A 
ATOM     14  C   UNL     1       6.564  24.968  16.468  0.00  0.00    +0.002 A 
ATOM     15  C   UNL     1       6.370  26.203  17.113  0.00  0.00    +0.000 A 
ATOM     16  C   UNL     1       6.093  26.247  18.498  0.00  0.00    +0.003 A 
BRANCH  11  18
ATOM     17  C   UNL     1       4.814  26.150  21.363  0.00  0.00    +0.077 C 
ATOM     18  C   UNL     1       5.712  25.071  20.768  0.00  0.00    +0.173 C 
ATOM     19  O   UNL     1       6.148  24.189  21.511  0.00  0.00    -0.291 OA
ENDBRANCH  11  18
ENDBRANCH   1  13
BRANCH   5  20
ATOM     20  C   UNL     1       4.227  24.712  12.684  0.00  0.00    +0.114 C 
BRANCH  20  21
ATOM     21  C   UNL     1       5.406  25.402  11.965  0.00  0.00    +0.022 C 
ATOM     22  C   UNL     1       5.432  26.937  11.974  0.00  0.00    +0.002 C 
ATOM     23  C   UNL     1       6.366  26.176  12.901  0.00  0.00    +0.002 C 
ENDBRANCH  20  21
ENDBRANCH   5  20
TORSDOF 4
ENDMDL
