MODEL 1
REMARK VINA RESULT:      -8.0      0.000      0.000
REMARK  Name = 3MTF_A3F.pdb
REMARK  5 active torsions:
REMARK  status: ('A' for Active; 'I' for Inactive)
REMARK    1  A    between atoms: _14  and  _15
REMARK    2  A    between atoms: _16  and  _19
REMARK    3  A    between atoms: _17  and  _24
REMARK    4  A    between atoms: _18  and  _25
REMARK    5  A    between atoms: _20  and  _26
REMARK                            x       y       z     vdW  Elec       q    Type
REMARK                         _______ _______ _______ _____ _____    ______ ____
ROOT
ATOM      1  C   UNL     1       6.154  24.336  15.491  0.00  0.00    +0.035 A 
ATOM      2  C   UNL     1       6.598  25.539  14.983  0.00  0.00    +0.170 A 
ATOM      3  N   UNL     1       6.814  26.584  15.795  0.00  0.00    -0.226 NA
ATOM      4  C   UNL     1       6.640  26.548  17.089  0.00  0.00    +0.100 A 
ATOM      5  C   UNL     1       6.279  25.351  17.691  0.00  0.00    +0.019 A 
ATOM      6  N   UNL     1       6.693  25.678  13.666  0.00  0.00    -0.107 NA
ATOM      7  C   UNL     1       5.992  24.253  16.875  0.00  0.00    +0.004 A 
ENDROOT
BRANCH   5   8
ATOM      8  C   UNL     1       6.063  25.316  19.083  0.00  0.00    +0.005 A 
ATOM      9  C   UNL     1       6.619  24.272  19.802  0.00  0.00    +0.042 A 
ATOM     10  C   UNL     1       6.395  24.145  21.162  0.00  0.00    +0.196 A 
ATOM     11  O   UNL     1       6.956  23.095  21.810  0.00  0.00    -0.287 OA
ATOM     12  C   UNL     1       5.581  25.041  21.846  0.00  0.00    +0.042 A 
ATOM     13  C   UNL     1       4.987  26.068  21.115  0.00  0.00    +0.003 A 
ATOM     14  C   UNL     1       5.206  26.197  19.736  0.00  0.00    +0.000 A 
ENDBRANCH   5   8
BRANCH   1  19
ATOM     15  C   UNL     1       4.993  22.272  12.592  0.00  0.00    +0.175 A 
ATOM     16  C   UNL     1       5.523  21.039  12.944  0.00  0.00    +0.206 A 
ATOM     17  C   UNL     1       6.213  20.875  14.144  0.00  0.00    +0.175 A 
ATOM     18  C   UNL     1       6.418  21.961  14.985  0.00  0.00    +0.040 A 
ATOM     19  C   UNL     1       5.896  23.213  14.663  0.00  0.00    +0.009 A 
ATOM     20  C   UNL     1       5.199  23.350  13.459  0.00  0.00    +0.040 A 
BRANCH  15  22
ATOM     21  C   UNL     1       4.847  23.134  10.268  0.00  0.00    +0.253 C 
ATOM     22  O   UNL     1       4.278  22.384  11.399  0.00  0.00    -0.468 OA
ENDBRANCH  15  22
BRANCH  16  23
ATOM     23  O   UNL     1       5.376  19.955  12.135  0.00  0.00    -0.465 OA
ATOM     24  C   UNL     1       6.442  19.854  11.207  0.00  0.00    +0.253 C 
ENDBRANCH  16  23
BRANCH  17  25
ATOM     25  O   UNL     1       6.662  19.624  14.425  0.00  0.00    -0.468 OA
ATOM     26  C   UNL     1       6.795  19.300  15.817  0.00  0.00    +0.253 C 
ENDBRANCH  17  25
ENDBRANCH   1  19
TORSDOF 5
ENDMDL
MODEL 2
REMARK VINA RESULT:      -8.0      0.227      2.538
REMARK  Name = 3MTF_A3F.pdb
REMARK  5 active torsions:
REMARK  status: ('A' for Active; 'I' for Inactive)
REMARK    1  A    between atoms: _14  and  _15
REMARK    2  A    between atoms: _16  and  _19
REMARK    3  A    between atoms: _17  and  _24
REMARK    4  A    between atoms: _18  and  _25
REMARK    5  A    between atoms: _20  and  _26
REMARK                            x       y       z     vdW  Elec       q    Type
REMARK                         _______ _______ _______ _____ _____    ______ ____
ROOT
ATOM      1  C   UNL     1       6.153  24.536  15.412  0.00  0.00    +0.035 A 
ATOM      2  C   UNL     1       6.497  25.791  14.955  0.00  0.00    +0.170 A 
ATOM      3  N   UNL     1       6.667  26.806  15.815  0.00  0.00    -0.226 NA
ATOM      4  C   UNL     1       6.538  26.693  17.109  0.00  0.00    +0.100 A 
ATOM      5  C   UNL     1       6.280  25.445  17.658  0.00  0.00    +0.019 A 
ATOM      6  N   UNL     1       6.539  26.002  13.645  0.00  0.00    -0.107 NA
ATOM      7  C   UNL     1       6.041  24.372  16.794  0.00  0.00    +0.004 A 
ENDROOT
BRANCH   5   8
ATOM      8  C   UNL     1       6.111  25.324  19.052  0.00  0.00    +0.005 A 
ATOM      9  C   UNL     1       6.679  24.233  19.684  0.00  0.00    +0.042 A 
ATOM     10  C   UNL     1       6.501  24.022  21.041  0.00  0.00    +0.196 A 
ATOM     11  O   UNL     1       7.072  22.928  21.601  0.00  0.00    -0.287 OA
ATOM     12  C   UNL     1       5.722  24.881  21.807  0.00  0.00    +0.042 A 
ATOM     13  C   UNL     1       5.116  25.958  21.163  0.00  0.00    +0.003 A 
ATOM     14  C   UNL     1       5.287  26.171  19.788  0.00  0.00    +0.000 A 
ENDBRANCH   5   8
BRANCH   1  19
ATOM     15  C   UNL     1       6.135  21.048  14.051  0.00  0.00    +0.175 A 
ATOM     16  C   UNL     1       5.401  21.244  12.891  0.00  0.00    +0.206 A 
ATOM     17  C   UNL     1       4.958  22.516  12.533  0.00  0.00    +0.175 A 
ATOM     18  C   UNL     1       5.208  23.601  13.362  0.00  0.00    +0.040 A 
ATOM     19  C   UNL     1       5.945  23.440  14.534  0.00  0.00    +0.009 A 
ATOM     20  C   UNL     1       6.389  22.156  14.867  0.00  0.00    +0.040 A 
BRANCH  15  22
ATOM     21  C   UNL     1       6.808  19.371  15.755  0.00  0.00    +0.253 C 
ATOM     22  O   UNL     1       6.591  19.764  14.354  0.00  0.00    -0.468 OA
ENDBRANCH  15  22
BRANCH  16  23
ATOM     23  O   UNL     1       5.103  20.204  12.065  0.00  0.00    -0.465 OA
ATOM     24  C   UNL     1       6.195  19.886  11.220  0.00  0.00    +0.253 C 
ENDBRANCH  16  23
BRANCH  17  25
ATOM     25  O   UNL     1       4.281  22.620  11.360  0.00  0.00    -0.468 OA
ATOM     26  C   UNL     1       4.949  23.328  10.306  0.00  0.00    +0.253 C 
ENDBRANCH  17  25
ENDBRANCH   1  19
TORSDOF 5
ENDMDL
MODEL 3
REMARK VINA RESULT:      -7.6      1.050      2.901
REMARK  Name = 3MTF_A3F.pdb
REMARK  5 active torsions:
REMARK  status: ('A' for Active; 'I' for Inactive)
REMARK    1  A    between atoms: _14  and  _15
REMARK    2  A    between atoms: _16  and  _19
REMARK    3  A    between atoms: _17  and  _24
REMARK    4  A    between atoms: _18  and  _25
REMARK    5  A    between atoms: _20  and  _26
REMARK                            x       y       z     vdW  Elec       q    Type
REMARK                         _______ _______ _______ _____ _____    ______ ____
ROOT
ATOM      1  C   UNL     1       6.271  24.585  15.192  0.00  0.00    +0.035 A 
ATOM      2  C   UNL     1       6.620  25.866  14.816  0.00  0.00    +0.170 A 
ATOM      3  N   UNL     1       6.748  26.834  15.735  0.00  0.00    -0.226 NA
ATOM      4  C   UNL     1       6.570  26.651  17.016  0.00  0.00    +0.100 A 
ATOM      5  C   UNL     1       6.303  25.373  17.486  0.00  0.00    +0.019 A 
ATOM      6  N   UNL     1       6.711  26.147  13.522  0.00  0.00    -0.107 NA
ATOM      7  C   UNL     1       6.108  24.347  16.558  0.00  0.00    +0.004 A 
ENDROOT
BRANCH   5   8
ATOM      8  C   UNL     1       6.082  25.177  18.864  0.00  0.00    +0.005 A 
ATOM      9  C   UNL     1       5.325  26.116  19.542  0.00  0.00    +0.042 A 
ATOM     10  C   UNL     1       5.121  26.015  20.908  0.00  0.00    +0.196 A 
ATOM     11  O   UNL     1       4.380  26.972  21.519  0.00  0.00    -0.287 OA
ATOM     12  C   UNL     1       5.694  24.988  21.648  0.00  0.00    +0.042 A 
ATOM     13  C   UNL     1       6.491  24.066  20.974  0.00  0.00    +0.003 A 
ATOM     14  C   UNL     1       6.706  24.167  19.591  0.00  0.00    +0.000 A 
ENDBRANCH   5   8
BRANCH   1  19
ATOM     15  C   UNL     1       6.211  21.156  13.693  0.00  0.00    +0.175 A 
ATOM     16  C   UNL     1       5.640  21.440  12.460  0.00  0.00    +0.206 A 
ATOM     17  C   UNL     1       5.323  22.749  12.106  0.00  0.00    +0.175 A 
ATOM     18  C   UNL     1       5.534  23.786  13.005  0.00  0.00    +0.040 A 
ATOM     19  C   UNL     1       6.109  23.537  14.249  0.00  0.00    +0.009 A 
ATOM     20  C   UNL     1       6.428  22.216  14.579  0.00  0.00    +0.040 A 
BRANCH  15  22
ATOM     21  C   UNL     1       6.724  19.421  15.394  0.00  0.00    +0.253 C 
ATOM     22  O   UNL     1       6.547  19.835  13.993  0.00  0.00    -0.468 OA
ENDBRANCH  15  22
BRANCH  16  23
ATOM     23  O   UNL     1       5.385  20.450  11.561  0.00  0.00    -0.465 OA
ATOM     24  C   UNL     1       6.506  20.205  10.731  0.00  0.00    +0.253 C 
ENDBRANCH  16  23
BRANCH  17  25
ATOM     25  O   UNL     1       4.805  22.938  10.864  0.00  0.00    -0.468 OA
ATOM     26  C   UNL     1       5.081  24.206  10.251  0.00  0.00    +0.253 C 
ENDBRANCH  17  25
ENDBRANCH   1  19
TORSDOF 5
ENDMDL
MODEL 4
REMARK VINA RESULT:      -7.4      1.383      1.684
REMARK  Name = 3MTF_A3F.pdb
REMARK  5 active torsions:
REMARK  status: ('A' for Active; 'I' for Inactive)
REMARK    1  A    between atoms: _14  and  _15
REMARK    2  A    between atoms: _16  and  _19
REMARK    3  A    between atoms: _17  and  _24
REMARK    4  A    between atoms: _18  and  _25
REMARK    5  A    between atoms: _20  and  _26
REMARK                            x       y       z     vdW  Elec       q    Type
REMARK                         _______ _______ _______ _____ _____    ______ ____
ROOT
ATOM      1  C   UNL     1       6.410  24.855  15.020  0.00  0.00    +0.035 A 
ATOM      2  C   UNL     1       6.865  26.125  14.733  0.00  0.00    +0.170 A 
ATOM      3  N   UNL     1       7.053  27.019  15.714  0.00  0.00    -0.226 NA
ATOM      4  C   UNL     1       6.840  26.769  16.978  0.00  0.00    +0.100 A 
ATOM      5  C   UNL     1       6.465  25.489  17.361  0.00  0.00    +0.019 A 
ATOM      6  N   UNL     1       6.999  26.481  13.460  0.00  0.00    -0.107 NA
ATOM      7  C   UNL     1       6.206  24.544  16.365  0.00  0.00    +0.004 A 
ENDROOT
BRANCH   5   8
ATOM      8  C   UNL     1       6.207  25.223  18.720  0.00  0.00    +0.005 A 
ATOM      9  C   UNL     1       5.423  26.121  19.422  0.00  0.00    +0.042 A 
ATOM     10  C   UNL     1       5.181  25.951  20.775  0.00  0.00    +0.196 A 
ATOM     11  O   UNL     1       4.415  26.871  21.410  0.00  0.00    -0.287 OA
ATOM     12  C   UNL     1       5.741  24.892  21.479  0.00  0.00    +0.042 A 
ATOM     13  C   UNL     1       6.565  24.011  20.783  0.00  0.00    +0.003 A 
ATOM     14  C   UNL     1       6.819  24.183  19.414  0.00  0.00    +0.000 A 
ENDBRANCH   5   8
BRANCH   1  19
ATOM     15  C   UNL     1       5.517  23.331  11.720  0.00  0.00    +0.175 A 
ATOM     16  C   UNL     1       5.878  22.012  11.955  0.00  0.00    +0.206 A 
ATOM     17  C   UNL     1       6.363  21.617  13.200  0.00  0.00    +0.175 A 
ATOM     18  C   UNL     1       6.536  22.553  14.211  0.00  0.00    +0.040 A 
ATOM     19  C   UNL     1       6.180  23.886  14.009  0.00  0.00    +0.009 A 
ATOM     20  C   UNL     1       5.685  24.256  12.755  0.00  0.00    +0.040 A 
BRANCH  15  22
ATOM     21  C   UNL     1       5.249  25.017   9.916  0.00  0.00    +0.253 C 
ATOM     22  O   UNL     1       5.001  23.676  10.469  0.00  0.00    -0.468 OA
ENDBRANCH  15  22
BRANCH  16  23
ATOM     23  O   UNL     1       5.758  21.067  10.983  0.00  0.00    -0.465 OA
ATOM     24  C   UNL     1       4.466  20.484  10.986  0.00  0.00    +0.253 C 
ENDBRANCH  16  23
BRANCH  17  25
ATOM     25  O   UNL     1       6.654  20.299  13.353  0.00  0.00    -0.468 OA
ATOM     26  C   UNL     1       6.509  19.771  14.680  0.00  0.00    +0.253 C 
ENDBRANCH  17  25
ENDBRANCH   1  19
TORSDOF 5
ENDMDL
MODEL 5
REMARK VINA RESULT:      -7.4      2.877      7.312
REMARK  Name = 3MTF_A3F.pdb
REMARK  5 active torsions:
REMARK  status: ('A' for Active; 'I' for Inactive)
REMARK    1  A    between atoms: _14  and  _15
REMARK    2  A    between atoms: _16  and  _19
REMARK    3  A    between atoms: _17  and  _24
REMARK    4  A    between atoms: _18  and  _25
REMARK    5  A    between atoms: _20  and  _26
REMARK                            x       y       z     vdW  Elec       q    Type
REMARK                         _______ _______ _______ _____ _____    ______ ____
ROOT
ATOM      1  C   UNL     1       6.263  22.737  16.684  0.00  0.00    +0.035 A 
ATOM      2  C   UNL     1       5.811  21.598  16.052  0.00  0.00    +0.170 A 
ATOM      3  N   UNL     1       5.309  21.661  14.810  0.00  0.00    -0.226 NA
ATOM      4  C   UNL     1       5.220  22.763  14.116  0.00  0.00    +0.100 A 
ATOM      5  C   UNL     1       5.733  23.939  14.644  0.00  0.00    +0.019 A 
ATOM      6  N   UNL     1       5.772  20.462  16.739  0.00  0.00    -0.107 NA
ATOM      7  C   UNL     1       6.215  23.927  15.956  0.00  0.00    +0.004 A 
ENDROOT
BRANCH   5   8
ATOM      8  C   UNL     1       5.614  25.136  13.910  0.00  0.00    +0.005 A 
ATOM      9  C   UNL     1       5.256  25.048  12.577  0.00  0.00    +0.042 A 
ATOM     10  C   UNL     1       5.180  26.180  11.783  0.00  0.00    +0.196 A 
ATOM     11  O   UNL     1       4.835  26.029  10.481  0.00  0.00    -0.287 OA
ATOM     12  C   UNL     1       5.489  27.437  12.289  0.00  0.00    +0.042 A 
ATOM     13  C   UNL     1       5.891  27.522  13.620  0.00  0.00    +0.003 A 
ATOM     14  C   UNL     1       5.976  26.377  14.427  0.00  0.00    +0.000 A 
ENDBRANCH   5   8
BRANCH   1  19
ATOM     15  C   UNL     1       6.724  23.516  20.317  0.00  0.00    +0.175 A 
ATOM     16  C   UNL     1       7.685  22.572  20.647  0.00  0.00    +0.206 A 
ATOM     17  C   UNL     1       8.212  21.721  19.678  0.00  0.00    +0.175 A 
ATOM     18  C   UNL     1       7.746  21.777  18.371  0.00  0.00    +0.040 A 
ATOM     19  C   UNL     1       6.783  22.716  18.005  0.00  0.00    +0.009 A 
ATOM     20  C   UNL     1       6.277  23.566  18.992  0.00  0.00    +0.040 A 
BRANCH  15  22
ATOM     21  C   UNL     1       5.570  25.625  20.940  0.00  0.00    +0.253 C 
ATOM     22  O   UNL     1       6.249  24.373  21.311  0.00  0.00    -0.468 OA
ENDBRANCH  15  22
BRANCH  16  23
ATOM     23  O   UNL     1       8.148  22.458  21.922  0.00  0.00    -0.465 OA
ATOM     24  C   UNL     1       9.312  23.241  22.122  0.00  0.00    +0.253 C 
ENDBRANCH  16  23
BRANCH  17  25
ATOM     25  O   UNL     1       9.178  20.855  20.084  0.00  0.00    -0.468 OA
ATOM     26  C   UNL     1       8.725  19.567  20.525  0.00  0.00    +0.253 C 
ENDBRANCH  17  25
ENDBRANCH   1  19
TORSDOF 5
ENDMDL
MODEL 6
REMARK VINA RESULT:      -7.4      7.815     10.838
REMARK  Name = 3MTF_A3F.pdb
REMARK  5 active torsions:
REMARK  status: ('A' for Active; 'I' for Inactive)
REMARK    1  A    between atoms: _14  and  _15
REMARK    2  A    between atoms: _16  and  _19
REMARK    3  A    between atoms: _17  and  _24
REMARK    4  A    between atoms: _18  and  _25
REMARK    5  A    between atoms: _20  and  _26
REMARK                            x       y       z     vdW  Elec       q    Type
REMARK                         _______ _______ _______ _____ _____    ______ ____
ROOT
ATOM      1  C   UNL     1      12.197  22.107  20.041  0.00  0.00    +0.035 A 
ATOM      2  C   UNL     1      11.393  23.031  19.406  0.00  0.00    +0.170 A 
ATOM      3  N   UNL     1      11.826  23.670  18.310  0.00  0.00    -0.226 NA
ATOM      4  C   UNL     1      12.996  23.471  17.765  0.00  0.00    +0.100 A 
ATOM      5  C   UNL     1      13.830  22.494  18.290  0.00  0.00    +0.019 A 
ATOM      6  N   UNL     1      10.236  23.361  19.967  0.00  0.00    -0.107 NA
ATOM      7  C   UNL     1      13.440  21.844  19.464  0.00  0.00    +0.004 A 
ENDROOT
BRANCH   5   8
ATOM      8  C   UNL     1      15.105  22.296  17.722  0.00  0.00    +0.005 A 
ATOM      9  C   UNL     1      16.207  22.757  18.419  0.00  0.00    +0.042 A 
ATOM     10  C   UNL     1      17.482  22.649  17.890  0.00  0.00    +0.196 A 
ATOM     11  O   UNL     1      18.521  23.130  18.614  0.00  0.00    -0.287 OA
ATOM     12  C   UNL     1      17.694  22.101  16.630  0.00  0.00    +0.042 A 
ATOM     13  C   UNL     1      16.581  21.674  15.910  0.00  0.00    +0.003 A 
ATOM     14  C   UNL     1      15.287  21.788  16.439  0.00  0.00    +0.000 A 
ENDBRANCH   5   8
BRANCH   1  19
ATOM     15  C   UNL     1      10.631  19.540  22.272  0.00  0.00    +0.175 A 
ATOM     16  C   UNL     1      11.097  19.973  23.505  0.00  0.00    +0.206 A 
ATOM     17  C   UNL     1      11.877  21.123  23.609  0.00  0.00    +0.175 A 
ATOM     18  C   UNL     1      12.237  21.828  22.468  0.00  0.00    +0.040 A 
ATOM     19  C   UNL     1      11.783  21.423  21.214  0.00  0.00    +0.009 A 
ATOM     20  C   UNL     1      10.993  20.272  21.135  0.00  0.00    +0.040 A 
BRANCH  15  22
ATOM     21  C   UNL     1       8.358  18.540  22.249  0.00  0.00    +0.253 C 
ATOM     22  O   UNL     1       9.823  18.404  22.216  0.00  0.00    -0.468 OA
ENDBRANCH  15  22
BRANCH  16  23
ATOM     23  O   UNL     1      10.797  19.294  24.646  0.00  0.00    -0.465 OA
ATOM     24  C   UNL     1      11.723  18.248  24.882  0.00  0.00    +0.253 C 
ENDBRANCH  16  23
BRANCH  17  25
ATOM     25  O   UNL     1      12.255  21.494  24.860  0.00  0.00    -0.468 OA
ATOM     26  C   UNL     1      13.668  21.544  25.103  0.00  0.00    +0.253 C 
ENDBRANCH  17  25
ENDBRANCH   1  19
TORSDOF 5
ENDMDL
MODEL 7
REMARK VINA RESULT:      -7.4      2.457      3.960
REMARK  Name = 3MTF_A3F.pdb
REMARK  5 active torsions:
REMARK  status: ('A' for Active; 'I' for Inactive)
REMARK    1  A    between atoms: _14  and  _15
REMARK    2  A    between atoms: _16  and  _19
REMARK    3  A    between atoms: _17  and  _24
REMARK    4  A    between atoms: _18  and  _25
REMARK    5  A    between atoms: _20  and  _26
REMARK                            x       y       z     vdW  Elec       q    Type
REMARK                         _______ _______ _______ _____ _____    ______ ____
ROOT
ATOM      1  C   UNL     1       6.163  23.177  15.818  0.00  0.00    +0.035 A 
ATOM      2  C   UNL     1       6.638  21.883  15.857  0.00  0.00    +0.170 A 
ATOM      3  N   UNL     1       6.940  21.303  17.027  0.00  0.00    -0.226 NA
ATOM      4  C   UNL     1       6.805  21.889  18.187  0.00  0.00    +0.100 A 
ATOM      5  C   UNL     1       6.250  23.160  18.242  0.00  0.00    +0.019 A 
ATOM      6  N   UNL     1       6.902  21.267  14.710  0.00  0.00    -0.107 NA
ATOM      7  C   UNL     1       5.972  23.820  17.042  0.00  0.00    +0.004 A 
ENDROOT
BRANCH   5   8
ATOM      8  C   UNL     1       6.128  23.806  19.489  0.00  0.00    +0.005 A 
ATOM      9  C   UNL     1       5.357  24.952  19.554  0.00  0.00    +0.042 A 
ATOM     10  C   UNL     1       5.245  25.669  20.734  0.00  0.00    +0.196 A 
ATOM     11  O   UNL     1       4.484  26.791  20.733  0.00  0.00    -0.287 OA
ATOM     12  C   UNL     1       5.926  25.280  21.881  0.00  0.00    +0.042 A 
ATOM     13  C   UNL     1       6.736  24.149  21.805  0.00  0.00    +0.003 A 
ATOM     14  C   UNL     1       6.858  23.424  20.611  0.00  0.00    +0.000 A 
ENDBRANCH   5   8
BRANCH   1  19
ATOM     15  C   UNL     1       4.783  23.810  12.396  0.00  0.00    +0.175 A 
ATOM     16  C   UNL     1       5.081  25.158  12.260  0.00  0.00    +0.206 A 
ATOM     17  C   UNL     1       5.771  25.841  13.259  0.00  0.00    +0.175 A 
ATOM     18  C   UNL     1       6.130  25.188  14.431  0.00  0.00    +0.040 A 
ATOM     19  C   UNL     1       5.849  23.833  14.599  0.00  0.00    +0.009 A 
ATOM     20  C   UNL     1       5.165  23.166  13.578  0.00  0.00    +0.040 A 
BRANCH  15  22
ATOM     21  C   UNL     1       4.773  22.034  10.660  0.00  0.00    +0.253 C 
ATOM     22  O   UNL     1       4.122  23.155  11.355  0.00  0.00    -0.468 OA
ENDBRANCH  15  22
BRANCH  16  23
ATOM     23  O   UNL     1       4.718  25.847  11.143  0.00  0.00    -0.465 OA
ATOM     24  C   UNL     1       5.706  25.750  10.132  0.00  0.00    +0.253 C 
ENDBRANCH  16  23
BRANCH  17  25
ATOM     25  O   UNL     1       6.055  27.148  13.023  0.00  0.00    -0.468 OA
ATOM     26  C   UNL     1       6.938  27.782  13.959  0.00  0.00    +0.253 C 
ENDBRANCH  17  25
ENDBRANCH   1  19
TORSDOF 5
ENDMDL
MODEL 8
REMARK VINA RESULT:      -7.3      5.574      8.502
REMARK  Name = 3MTF_A3F.pdb
REMARK  5 active torsions:
REMARK  status: ('A' for Active; 'I' for Inactive)
REMARK    1  A    between atoms: _14  and  _15
REMARK    2  A    between atoms: _16  and  _19
REMARK    3  A    between atoms: _17  and  _24
REMARK    4  A    between atoms: _18  and  _25
REMARK    5  A    between atoms: _20  and  _26
REMARK                            x       y       z     vdW  Elec       q    Type
REMARK                         _______ _______ _______ _____ _____    ______ ____
ROOT
ATOM      1  C   UNL     1       8.911  20.487  21.833  0.00  0.00    +0.035 A 
ATOM      2  C   UNL     1      10.106  21.048  22.231  0.00  0.00    +0.170 A 
ATOM      3  N   UNL     1      10.283  22.377  22.188  0.00  0.00    -0.226 NA
ATOM      4  C   UNL     1       9.368  23.220  21.791  0.00  0.00    +0.100 A 
ATOM      5  C   UNL     1       8.107  22.745  21.458  0.00  0.00    +0.019 A 
ATOM      6  N   UNL     1      11.115  20.243  22.542  0.00  0.00    -0.107 NA
ATOM      7  C   UNL     1       7.899  21.363  21.437  0.00  0.00    +0.004 A 
ENDROOT
BRANCH   5   8
ATOM      8  C   UNL     1       7.127  23.649  21.003  0.00  0.00    +0.005 A 
ATOM      9  C   UNL     1       6.941  23.775  19.638  0.00  0.00    +0.042 A 
ATOM     10  C   UNL     1       6.037  24.689  19.123  0.00  0.00    +0.196 A 
ATOM     11  O   UNL     1       5.907  24.775  17.777  0.00  0.00    -0.287 OA
ATOM     12  C   UNL     1       5.309  25.530  19.956  0.00  0.00    +0.042 A 
ATOM     13  C   UNL     1       5.526  25.434  21.329  0.00  0.00    +0.003 A 
ATOM     14  C   UNL     1       6.446  24.515  21.855  0.00  0.00    +0.000 A 
ENDBRANCH   5   8
BRANCH   1  19
ATOM     15  C   UNL     1       8.211  17.028  23.082  0.00  0.00    +0.175 A 
ATOM     16  C   UNL     1       8.094  16.353  21.876  0.00  0.00    +0.206 A 
ATOM     17  C   UNL     1       8.291  17.015  20.666  0.00  0.00    +0.175 A 
ATOM     18  C   UNL     1       8.563  18.377  20.651  0.00  0.00    +0.040 A 
ATOM     19  C   UNL     1       8.691  19.085  21.845  0.00  0.00    +0.009 A 
ATOM     20  C   UNL     1       8.499  18.397  23.047  0.00  0.00    +0.040 A 
BRANCH  15  22
ATOM     21  C   UNL     1       8.179  17.007  25.565  0.00  0.00    +0.253 C 
ATOM     22  O   UNL     1       8.041  16.319  24.272  0.00  0.00    -0.468 OA
ENDBRANCH  15  22
BRANCH  16  23
ATOM     23  O   UNL     1       7.795  15.026  21.840  0.00  0.00    -0.465 OA
ATOM     24  C   UNL     1       6.397  14.809  21.903  0.00  0.00    +0.253 C 
ENDBRANCH  16  23
BRANCH  17  25
ATOM     25  O   UNL     1       8.196  16.267  19.536  0.00  0.00    -0.468 OA
ATOM     26  C   UNL     1       7.194  16.672  18.593  0.00  0.00    +0.253 C 
ENDBRANCH  17  25
ENDBRANCH   1  19
TORSDOF 5
ENDMDL
MODEL 9
REMARK VINA RESULT:      -7.3      3.666      5.516
REMARK  Name = 3MTF_A3F.pdb
REMARK  5 active torsions:
REMARK  status: ('A' for Active; 'I' for Inactive)
REMARK    1  A    between atoms: _14  and  _15
REMARK    2  A    between atoms: _16  and  _19
REMARK    3  A    between atoms: _17  and  _24
REMARK    4  A    between atoms: _18  and  _25
REMARK    5  A    between atoms: _20  and  _26
REMARK                            x       y       z     vdW  Elec       q    Type
REMARK                         _______ _______ _______ _____ _____    ______ ____
ROOT
ATOM      1  C   UNL     1       7.055  24.474  18.290  0.00  0.00    +0.035 A 
ATOM      2  C   UNL     1       6.199  24.864  19.299  0.00  0.00    +0.170 A 
ATOM      3  N   UNL     1       6.290  24.317  20.519  0.00  0.00    -0.226 NA
ATOM      4  C   UNL     1       7.172  23.411  20.847  0.00  0.00    +0.100 A 
ATOM      5  C   UNL     1       8.127  23.028  19.916  0.00  0.00    +0.019 A 
ATOM      6  N   UNL     1       5.210  25.700  19.006  0.00  0.00    -0.107 NA
ATOM      7  C   UNL     1       8.033  23.533  18.617  0.00  0.00    +0.004 A 
ENDROOT
BRANCH   5   8
ATOM      8  C   UNL     1       9.062  22.031  20.257  0.00  0.00    +0.005 A 
ATOM      9  C   UNL     1       8.596  20.745  20.467  0.00  0.00    +0.042 A 
ATOM     10  C   UNL     1       9.453  19.732  20.864  0.00  0.00    +0.196 A 
ATOM     11  O   UNL     1       8.935  18.496  21.065  0.00  0.00    -0.287 OA
ATOM     12  C   UNL     1      10.801  19.977  21.094  0.00  0.00    +0.042 A 
ATOM     13  C   UNL     1      11.264  21.280  20.924  0.00  0.00    +0.003 A 
ATOM     14  C   UNL     1      10.399  22.311  20.529  0.00  0.00    +0.000 A 
ENDBRANCH   5   8
BRANCH   1  19
ATOM     15  C   UNL     1       5.951  25.047  14.760  0.00  0.00    +0.175 A 
ATOM     16  C   UNL     1       6.701  26.172  14.450  0.00  0.00    +0.206 A 
ATOM     17  C   UNL     1       7.597  26.708  15.373  0.00  0.00    +0.175 A 
ATOM     18  C   UNL     1       7.716  26.147  16.638  0.00  0.00    +0.040 A 
ATOM     19  C   UNL     1       6.979  25.015  16.980  0.00  0.00    +0.009 A 
ATOM     20  C   UNL     1       6.094  24.488  16.034  0.00  0.00    +0.040 A 
BRANCH  15  22
ATOM     21  C   UNL     1       4.905  23.066  13.689  0.00  0.00    +0.253 C 
ATOM     22  O   UNL     1       5.092  24.521  13.793  0.00  0.00    -0.468 OA
ENDBRANCH  15  22
BRANCH  16  23
ATOM     23  O   UNL     1       6.592  26.776  13.235  0.00  0.00    -0.465 OA
ATOM     24  C   UNL     1       5.586  27.773  13.242  0.00  0.00    +0.253 C 
ENDBRANCH  16  23
BRANCH  17  25
ATOM     25  O   UNL     1       8.319  27.786  14.970  0.00  0.00    -0.468 OA
ATOM     26  C   UNL     1       9.708  27.550  14.698  0.00  0.00    +0.253 C 
ENDBRANCH  17  25
ENDBRANCH   1  19
TORSDOF 5
ENDMDL
