MODEL 1
REMARK VINA RESULT:      -6.4      0.000      0.000
REMARK  Name = 6GI6_EZB.pdb
REMARK  2 active torsions:
REMARK  status: ('A' for Active; 'I' for Inactive)
REMARK    1  A    between atoms: _1  and  _2
REMARK    2  A    between atoms: _3  and  _13
REMARK                            x       y       z     vdW  Elec       q    Type
REMARK                         _______ _______ _______ _____ _____    ______ ____
ROOT
ATOM      1  C   UNL     1      10.152  27.403  16.871  0.00  0.00    +0.045 C 
ATOM      2  C   UNL     1       9.277  26.497  16.023  0.00  0.00    -0.028 A 
ATOM      3  C   UNL     1       7.987  26.963  15.595  0.00  0.00    +0.068 A 
ATOM      4  C   UNL     1       7.446  28.335  15.961  0.00  0.00    +0.259 A 
ATOM      5  O   UNL     1       8.069  29.128  16.636  0.00  0.00    -0.267 OA
ATOM      6  N   UNL     1       6.182  28.727  15.515  0.00  0.00    -0.313 N 
ATOM      7  C   UNL     1       5.392  27.859  14.716  0.00  0.00    +0.199 A 
ATOM      8  N   UNL     1       5.893  26.562  14.365  0.00  0.00    -0.237 NA
ATOM      9  H   UNL     1       5.860  29.551  15.740  0.00  0.00    +0.170 HD
ATOM     10  C   UNL     1       7.203  26.143  14.827  0.00  0.00    +0.078 A 
ATOM     11  C   UNL     1       7.645  24.850  14.453  0.00  0.00    +0.029 A 
ATOM     12  C   UNL     1       8.888  24.403  14.866  0.00  0.00    +0.011 A 
ATOM     13  C   UNL     1       9.704  25.202  15.662  0.00  0.00    -0.013 A 
ENDROOT
BRANCH  13  14
ATOM     14  C   UNL     1      10.946  24.640  15.966  0.00  0.00    -0.008 A 
ATOM     15  C   UNL     1      11.290  23.997  17.195  0.00  0.00    +0.008 A 
ATOM     16  C   UNL     1      10.361  23.871  18.269  0.00  0.00    +0.012 A 
ATOM     17  C   UNL     1      10.764  23.238  19.443  0.00  0.00    +0.020 A 
ATOM     18  C   UNL     1      12.059  22.729  19.557  0.00  0.00    +0.111 A 
ATOM     19  N   UNL     1      12.920  22.858  18.533  0.00  0.00    -0.255 NA
ATOM     20  C   UNL     1      12.549  23.482  17.359  0.00  0.00    +0.072 A 
ATOM     21  C   UNL     1      13.515  23.568  16.319  0.00  0.00    +0.028 A 
ATOM     22  C   UNL     1      13.184  24.193  15.126  0.00  0.00    +0.003 A 
ATOM     23  C   UNL     1      11.902  24.718  14.953  0.00  0.00    +0.009 A 
ENDBRANCH  13  14
TORSDOF 1
ENDMDL
MODEL 2
REMARK VINA RESULT:      -6.2     20.513     21.890
REMARK  Name = 6GI6_EZB.pdb
REMARK  2 active torsions:
REMARK  status: ('A' for Active; 'I' for Inactive)
REMARK    1  A    between atoms: _1  and  _2
REMARK    2  A    between atoms: _3  and  _13
REMARK                            x       y       z     vdW  Elec       q    Type
REMARK                         _______ _______ _______ _____ _____    ______ ____
ROOT
ATOM      1  C   UNL     1       0.706  25.574  34.270  0.00  0.00    +0.045 C 
ATOM      2  C   UNL     1      -0.194  24.831  35.241  0.00  0.00    -0.028 A 
ATOM      3  C   UNL     1      -1.594  25.150  35.291  0.00  0.00    +0.068 A 
ATOM      4  C   UNL     1      -2.225  26.215  34.411  0.00  0.00    +0.259 A 
ATOM      5  O   UNL     1      -1.589  26.864  33.605  0.00  0.00    -0.267 OA
ATOM      6  N   UNL     1      -3.593  26.480  34.509  0.00  0.00    -0.313 N 
ATOM      7  C   UNL     1      -4.408  25.760  35.422  0.00  0.00    +0.199 A 
ATOM      8  N   UNL     1      -3.823  24.753  36.258  0.00  0.00    -0.237 NA
ATOM      9  H   UNL     1      -3.967  27.122  33.980  0.00  0.00    +0.170 HD
ATOM     10  C   UNL     1      -2.401  24.474  36.166  0.00  0.00    +0.078 A 
ATOM     11  C   UNL     1      -1.876  23.471  37.019  0.00  0.00    +0.029 A 
ATOM     12  C   UNL     1      -0.528  23.165  36.969  0.00  0.00    +0.011 A 
ATOM     13  C   UNL     1       0.326  23.844  36.105  0.00  0.00    -0.013 A 
ENDROOT
BRANCH  13  14
ATOM     14  C   UNL     1       1.650  23.401  36.131  0.00  0.00    -0.008 A 
ATOM     15  C   UNL     1       2.740  24.073  36.766  0.00  0.00    +0.008 A 
ATOM     16  C   UNL     1       2.570  25.310  37.453  0.00  0.00    +0.012 A 
ATOM     17  C   UNL     1       3.676  25.915  38.045  0.00  0.00    +0.020 A 
ATOM     18  C   UNL     1       4.931  25.309  37.970  0.00  0.00    +0.111 A 
ATOM     19  N   UNL     1       5.071  24.142  37.317  0.00  0.00    -0.255 NA
ATOM     20  C   UNL     1       3.994  23.521  36.720  0.00  0.00    +0.072 A 
ATOM     21  C   UNL     1       4.223  22.283  36.059  0.00  0.00    +0.028 A 
ATOM     22  C   UNL     1       3.167  21.630  35.440  0.00  0.00    +0.003 A 
ATOM     23  C   UNL     1       1.888  22.187  35.486  0.00  0.00    +0.009 A 
ENDBRANCH  13  14
TORSDOF 1
ENDMDL
MODEL 3
REMARK VINA RESULT:      -6.1     13.216     15.786
REMARK  Name = 6GI6_EZB.pdb
REMARK  2 active torsions:
REMARK  status: ('A' for Active; 'I' for Inactive)
REMARK    1  A    between atoms: _1  and  _2
REMARK    2  A    between atoms: _3  and  _13
REMARK                            x       y       z     vdW  Elec       q    Type
REMARK                         _______ _______ _______ _____ _____    ______ ____
ROOT
ATOM      1  C   UNL     1       9.739  39.024  23.799  0.00  0.00    +0.045 C 
ATOM      2  C   UNL     1       8.481  38.466  23.158  0.00  0.00    -0.028 A 
ATOM      3  C   UNL     1       8.564  37.851  21.862  0.00  0.00    +0.068 A 
ATOM      4  C   UNL     1       9.866  37.737  21.089  0.00  0.00    +0.259 A 
ATOM      5  O   UNL     1      10.923  38.154  21.516  0.00  0.00    -0.267 OA
ATOM      6  N   UNL     1       9.879  37.129  19.831  0.00  0.00    -0.313 N 
ATOM      7  C   UNL     1       8.685  36.610  19.263  0.00  0.00    +0.199 A 
ATOM      8  N   UNL     1       7.451  36.712  19.984  0.00  0.00    -0.237 NA
ATOM      9  H   UNL     1      10.663  37.065  19.369  0.00  0.00    +0.170 HD
ATOM     10  C   UNL     1       7.426  37.346  21.290  0.00  0.00    +0.078 A 
ATOM     11  C   UNL     1       6.178  37.423  21.956  0.00  0.00    +0.029 A 
ATOM     12  C   UNL     1       6.100  38.015  23.203  0.00  0.00    +0.011 A 
ATOM     13  C   UNL     1       7.232  38.555  23.807  0.00  0.00    -0.013 A 
ENDROOT
BRANCH  13  14
ATOM     14  C   UNL     1       7.014  39.081  25.083  0.00  0.00    -0.008 A 
ATOM     15  C   UNL     1       7.258  38.402  26.316  0.00  0.00    +0.008 A 
ATOM     16  C   UNL     1       7.760  37.069  26.359  0.00  0.00    +0.012 A 
ATOM     17  C   UNL     1       7.970  36.462  27.596  0.00  0.00    +0.020 A 
ATOM     18  C   UNL     1       7.696  37.159  28.774  0.00  0.00    +0.111 A 
ATOM     19  N   UNL     1       7.222  38.416  28.712  0.00  0.00    -0.255 NA
ATOM     20  C   UNL     1       7.004  39.040  27.502  0.00  0.00    +0.072 A 
ATOM     21  C   UNL     1       6.512  40.375  27.522  0.00  0.00    +0.028 A 
ATOM     22  C   UNL     1       6.273  41.036  26.326  0.00  0.00    +0.003 A 
ATOM     23  C   UNL     1       6.531  40.390  25.116  0.00  0.00    +0.009 A 
ENDBRANCH  13  14
TORSDOF 1
ENDMDL
MODEL 4
REMARK VINA RESULT:      -6.0     11.976     14.942
REMARK  Name = 6GI6_EZB.pdb
REMARK  2 active torsions:
REMARK  status: ('A' for Active; 'I' for Inactive)
REMARK    1  A    between atoms: _1  and  _2
REMARK    2  A    between atoms: _3  and  _13
REMARK                            x       y       z     vdW  Elec       q    Type
REMARK                         _______ _______ _______ _____ _____    ______ ____
ROOT
ATOM      1  C   UNL     1       9.423  37.413  20.349  0.00  0.00    +0.045 C 
ATOM      2  C   UNL     1       8.484  37.849  19.238  0.00  0.00    -0.028 A 
ATOM      3  C   UNL     1       8.844  37.595  17.870  0.00  0.00    +0.068 A 
ATOM      4  C   UNL     1      10.140  36.908  17.476  0.00  0.00    +0.259 A 
ATOM      5  O   UNL     1      10.955  36.526  18.290  0.00  0.00    -0.267 OA
ATOM      6  N   UNL     1      10.433  36.693  16.127  0.00  0.00    -0.313 N 
ATOM      7  C   UNL     1       9.528  37.106  15.113  0.00  0.00    +0.199 A 
ATOM      8  N   UNL     1       8.303  37.755  15.474  0.00  0.00    -0.237 NA
ATOM      9  H   UNL     1      11.214  36.282  15.895  0.00  0.00    +0.170 HD
ATOM     10  C   UNL     1       7.991  37.987  16.873  0.00  0.00    +0.078 A 
ATOM     11  C   UNL     1       6.768  38.636  17.171  0.00  0.00    +0.029 A 
ATOM     12  C   UNL     1       6.422  38.880  18.488  0.00  0.00    +0.011 A 
ATOM     13  C   UNL     1       7.273  38.511  19.527  0.00  0.00    -0.013 A 
ENDROOT
BRANCH  13  14
ATOM     14  C   UNL     1       6.776  38.780  20.805  0.00  0.00    -0.008 A 
ATOM     15  C   UNL     1       6.885  40.026  21.496  0.00  0.00    +0.008 A 
ATOM     16  C   UNL     1       7.543  41.153  20.923  0.00  0.00    +0.012 A 
ATOM     17  C   UNL     1       7.619  42.337  21.653  0.00  0.00    +0.020 A 
ATOM     18  C   UNL     1       7.051  42.414  22.926  0.00  0.00    +0.111 A 
ATOM     19  N   UNL     1       6.434  41.340  23.448  0.00  0.00    -0.255 NA
ATOM     20  C   UNL     1       6.345  40.154  22.748  0.00  0.00    +0.072 A 
ATOM     21  C   UNL     1       5.668  39.067  23.367  0.00  0.00    +0.028 A 
ATOM     22  C   UNL     1       5.562  37.856  22.699  0.00  0.00    +0.003 A 
ATOM     23  C   UNL     1       6.109  37.721  21.422  0.00  0.00    +0.009 A 
ENDBRANCH  13  14
TORSDOF 1
ENDMDL
MODEL 5
REMARK VINA RESULT:      -5.8     11.855     14.994
REMARK  Name = 6GI6_EZB.pdb
REMARK  2 active torsions:
REMARK  status: ('A' for Active; 'I' for Inactive)
REMARK    1  A    between atoms: _1  and  _2
REMARK    2  A    between atoms: _3  and  _13
REMARK                            x       y       z     vdW  Elec       q    Type
REMARK                         _______ _______ _______ _____ _____    ______ ____
ROOT
ATOM      1  C   UNL     1       6.420  38.876  18.322  0.00  0.00    +0.045 C 
ATOM      2  C   UNL     1       7.709  38.229  18.797  0.00  0.00    -0.028 A 
ATOM      3  C   UNL     1       8.645  37.728  17.828  0.00  0.00    +0.068 A 
ATOM      4  C   UNL     1       8.400  37.810  16.331  0.00  0.00    +0.259 A 
ATOM      5  O   UNL     1       7.400  38.307  15.855  0.00  0.00    -0.267 OA
ATOM      6  N   UNL     1       9.349  37.303  15.441  0.00  0.00    -0.313 N 
ATOM      7  C   UNL     1      10.549  36.711  15.918  0.00  0.00    +0.199 A 
ATOM      8  N   UNL     1      10.790  36.628  17.329  0.00  0.00    -0.237 NA
ATOM      9  H   UNL     1       9.197  37.352  14.543  0.00  0.00    +0.170 HD
ATOM     10  C   UNL     1       9.808  37.149  18.262  0.00  0.00    +0.078 A 
ATOM     11  C   UNL     1      10.097  37.037  19.645  0.00  0.00    +0.029 A 
ATOM     12  C   UNL     1       9.195  37.520  20.576  0.00  0.00    +0.011 A 
ATOM     13  C   UNL     1       7.994  38.098  20.172  0.00  0.00    -0.013 A 
ENDROOT
BRANCH  13  14
ATOM     14  C   UNL     1       7.202  38.579  21.217  0.00  0.00    -0.008 A 
ATOM     15  C   UNL     1       7.164  39.932  21.678  0.00  0.00    +0.008 A 
ATOM     16  C   UNL     1       7.968  40.953  21.094  0.00  0.00    +0.012 A 
ATOM     17  C   UNL     1       7.888  42.250  21.596  0.00  0.00    +0.020 A 
ATOM     18  C   UNL     1       7.022  42.540  22.652  0.00  0.00    +0.111 A 
ATOM     19  N   UNL     1       6.271  41.563  23.189  0.00  0.00    -0.255 NA
ATOM     20  C   UNL     1       6.333  40.270  22.713  0.00  0.00    +0.072 A 
ATOM     21  C   UNL     1       5.498  39.296  23.328  0.00  0.00    +0.028 A 
ATOM     22  C   UNL     1       5.535  37.982  22.884  0.00  0.00    +0.003 A 
ATOM     23  C   UNL     1       6.379  37.633  21.829  0.00  0.00    +0.009 A 
ENDBRANCH  13  14
TORSDOF 1
ENDMDL
MODEL 6
REMARK VINA RESULT:      -5.8     13.363     16.204
REMARK  Name = 6GI6_EZB.pdb
REMARK  2 active torsions:
REMARK  status: ('A' for Active; 'I' for Inactive)
REMARK    1  A    between atoms: _1  and  _2
REMARK    2  A    between atoms: _3  and  _13
REMARK                            x       y       z     vdW  Elec       q    Type
REMARK                         _______ _______ _______ _____ _____    ______ ____
ROOT
ATOM      1  C   UNL     1       9.912  38.632  23.792  0.00  0.00    +0.045 C 
ATOM      2  C   UNL     1       8.640  38.147  23.119  0.00  0.00    -0.028 A 
ATOM      3  C   UNL     1       8.695  37.682  21.761  0.00  0.00    +0.068 A 
ATOM      4  C   UNL     1       9.980  37.656  20.952  0.00  0.00    +0.259 A 
ATOM      5  O   UNL     1      11.046  38.024  21.401  0.00  0.00    -0.267 OA
ATOM      6  N   UNL     1       9.966  37.194  19.634  0.00  0.00    -0.313 N 
ATOM      7  C   UNL     1       8.760  36.740  19.038  0.00  0.00    +0.199 A 
ATOM      8  N   UNL     1       7.541  36.760  19.792  0.00  0.00    -0.237 NA
ATOM      9  H   UNL     1      10.739  37.183  19.152  0.00  0.00    +0.170 HD
ATOM     10  C   UNL     1       7.544  37.243  21.160  0.00  0.00    +0.078 A 
ATOM     11  C   UNL     1       6.311  37.243  21.856  0.00  0.00    +0.029 A 
ATOM     12  C   UNL     1       6.260  37.692  23.164  0.00  0.00    +0.011 A 
ATOM     13  C   UNL     1       7.406  38.162  23.801  0.00  0.00    -0.013 A 
ENDROOT
BRANCH  13  14
ATOM     14  C   UNL     1       7.215  38.541  25.132  0.00  0.00    -0.008 A 
ATOM     15  C   UNL     1       6.916  39.863  25.586  0.00  0.00    +0.008 A 
ATOM     16  C   UNL     1       6.786  40.961  24.686  0.00  0.00    +0.012 A 
ATOM     17  C   UNL     1       6.499  42.225  25.196  0.00  0.00    +0.020 A 
ATOM     18  C   UNL     1       6.335  42.407  26.570  0.00  0.00    +0.111 A 
ATOM     19  N   UNL     1       6.461  41.359  27.402  0.00  0.00    -0.255 NA
ATOM     20  C   UNL     1       6.746  40.096  26.925  0.00  0.00    +0.072 A 
ATOM     21  C   UNL     1       6.853  39.038  27.870  0.00  0.00    +0.028 A 
ATOM     22  C   UNL     1       7.145  37.754  27.432  0.00  0.00    +0.003 A 
ATOM     23  C   UNL     1       7.317  37.512  26.068  0.00  0.00    +0.009 A 
ENDBRANCH  13  14
TORSDOF 1
ENDMDL
MODEL 7
REMARK VINA RESULT:      -5.7     14.392     17.330
REMARK  Name = 6GI6_EZB.pdb
REMARK  2 active torsions:
REMARK  status: ('A' for Active; 'I' for Inactive)
REMARK    1  A    between atoms: _1  and  _2
REMARK    2  A    between atoms: _3  and  _13
REMARK                            x       y       z     vdW  Elec       q    Type
REMARK                         _______ _______ _______ _____ _____    ______ ____
ROOT
ATOM      1  C   UNL     1       7.146  42.035  22.345  0.00  0.00    +0.045 C 
ATOM      2  C   UNL     1       6.732  40.577  22.243  0.00  0.00    -0.028 A 
ATOM      3  C   UNL     1       7.104  39.818  21.082  0.00  0.00    +0.068 A 
ATOM      4  C   UNL     1       7.898  40.413  19.932  0.00  0.00    +0.259 A 
ATOM      5  O   UNL     1       8.273  41.567  19.919  0.00  0.00    -0.267 OA
ATOM      6  N   UNL     1       8.227  39.621  18.828  0.00  0.00    -0.313 N 
ATOM      7  C   UNL     1       7.831  38.259  18.769  0.00  0.00    +0.199 A 
ATOM      8  N   UNL     1       7.081  37.688  19.849  0.00  0.00    -0.237 NA
ATOM      9  H   UNL     1       8.702  39.984  18.139  0.00  0.00    +0.170 HD
ATOM     10  C   UNL     1       6.731  38.503  20.997  0.00  0.00    +0.078 A 
ATOM     11  C   UNL     1       5.986  37.887  22.033  0.00  0.00    +0.029 A 
ATOM     12  C   UNL     1       5.628  38.619  23.151  0.00  0.00    +0.011 A 
ATOM     13  C   UNL     1       5.975  39.963  23.262  0.00  0.00    -0.013 A 
ENDROOT
BRANCH  13  14
ATOM     14  C   UNL     1       5.586  40.564  24.462  0.00  0.00    -0.008 A 
ATOM     15  C   UNL     1       6.358  40.600  25.664  0.00  0.00    +0.008 A 
ATOM     16  C   UNL     1       7.646  39.996  25.754  0.00  0.00    +0.012 A 
ATOM     17  C   UNL     1       8.344  40.062  26.958  0.00  0.00    +0.020 A 
ATOM     18  C   UNL     1       7.786  40.720  28.056  0.00  0.00    +0.111 A 
ATOM     19  N   UNL     1       6.570  41.284  27.951  0.00  0.00    -0.255 NA
ATOM     20  C   UNL     1       5.857  41.232  26.772  0.00  0.00    +0.072 A 
ATOM     21  C   UNL     1       4.582  41.862  26.738  0.00  0.00    +0.028 A 
ATOM     22  C   UNL     1       3.829  41.827  25.574  0.00  0.00    +0.003 A 
ATOM     23  C   UNL     1       4.336  41.186  24.442  0.00  0.00    +0.009 A 
ENDBRANCH  13  14
TORSDOF 1
ENDMDL
MODEL 8
REMARK VINA RESULT:      -5.6     14.177     16.959
REMARK  Name = 6GI6_EZB.pdb
REMARK  2 active torsions:
REMARK  status: ('A' for Active; 'I' for Inactive)
REMARK    1  A    between atoms: _1  and  _2
REMARK    2  A    between atoms: _3  and  _13
REMARK                            x       y       z     vdW  Elec       q    Type
REMARK                         _______ _______ _______ _____ _____    ______ ____
ROOT
ATOM      1  C   UNL     1      10.194  38.418  25.595  0.00  0.00    +0.045 C 
ATOM      2  C   UNL     1       9.208  37.695  26.496  0.00  0.00    -0.028 A 
ATOM      3  C   UNL     1       9.698  36.763  27.473  0.00  0.00    +0.068 A 
ATOM      4  C   UNL     1      11.175  36.457  27.647  0.00  0.00    +0.259 A 
ATOM      5  O   UNL     1      12.039  36.981  26.974  0.00  0.00    -0.267 OA
ATOM      6  N   UNL     1      11.588  35.538  28.615  0.00  0.00    -0.313 N 
ATOM      7  C   UNL     1      10.639  34.885  29.446  0.00  0.00    +0.199 A 
ATOM      8  N   UNL     1       9.243  35.167  29.291  0.00  0.00    -0.237 NA
ATOM      9  H   UNL     1      12.476  35.355  28.714  0.00  0.00    +0.170 HD
ATOM     10  C   UNL     1       8.804  36.117  28.285  0.00  0.00    +0.078 A 
ATOM     11  C   UNL     1       7.412  36.354  28.173  0.00  0.00    +0.029 A 
ATOM     12  C   UNL     1       6.941  37.252  27.232  0.00  0.00    +0.011 A 
ATOM     13  C   UNL     1       7.819  37.913  26.377  0.00  0.00    -0.013 A 
ENDROOT
BRANCH  13  14
ATOM     14  C   UNL     1       7.209  38.821  25.509  0.00  0.00    -0.008 A 
ATOM     15  C   UNL     1       6.960  38.604  24.118  0.00  0.00    +0.008 A 
ATOM     16  C   UNL     1       7.334  37.395  23.462  0.00  0.00    +0.012 A 
ATOM     17  C   UNL     1       7.068  37.251  22.102  0.00  0.00    +0.020 A 
ATOM     18  C   UNL     1       6.437  38.278  21.399  0.00  0.00    +0.111 A 
ATOM     19  N   UNL     1       6.092  39.411  22.035  0.00  0.00    -0.255 NA
ATOM     20  C   UNL     1       6.345  39.582  23.381  0.00  0.00    +0.072 A 
ATOM     21  C   UNL     1       5.939  40.805  23.983  0.00  0.00    +0.028 A 
ATOM     22  C   UNL     1       6.181  41.018  25.332  0.00  0.00    +0.003 A 
ATOM     23  C   UNL     1       6.806  40.026  26.088  0.00  0.00    +0.009 A 
ENDBRANCH  13  14
TORSDOF 1
ENDMDL
MODEL 9
REMARK VINA RESULT:      -5.6     14.855     17.865
REMARK  Name = 6GI6_EZB.pdb
REMARK  2 active torsions:
REMARK  status: ('A' for Active; 'I' for Inactive)
REMARK    1  A    between atoms: _1  and  _2
REMARK    2  A    between atoms: _3  and  _13
REMARK                            x       y       z     vdW  Elec       q    Type
REMARK                         _______ _______ _______ _____ _____    ______ ____
ROOT
ATOM      1  C   UNL     1       7.657  42.110  23.035  0.00  0.00    +0.045 C 
ATOM      2  C   UNL     1       6.997  40.796  22.658  0.00  0.00    -0.028 A 
ATOM      3  C   UNL     1       7.027  40.359  21.289  0.00  0.00    +0.068 A 
ATOM      4  C   UNL     1       7.693  41.162  20.185  0.00  0.00    +0.259 A 
ATOM      5  O   UNL     1       8.245  42.224  20.386  0.00  0.00    -0.267 OA
ATOM      6  N   UNL     1       7.686  40.682  18.873  0.00  0.00    -0.313 N 
ATOM      7  C   UNL     1       7.066  39.445  18.556  0.00  0.00    +0.199 A 
ATOM      8  N   UNL     1       6.435  38.679  19.590  0.00  0.00    -0.237 NA
ATOM      9  H   UNL     1       8.084  41.169  18.213  0.00  0.00    +0.170 HD
ATOM     10  C   UNL     1       6.432  39.171  20.956  0.00  0.00    +0.078 A 
ATOM     11  C   UNL     1       5.791  38.374  21.936  0.00  0.00    +0.029 A 
ATOM     12  C   UNL     1       5.763  38.797  23.253  0.00  0.00    +0.011 A 
ATOM     13  C   UNL     1       6.341  40.007  23.626  0.00  0.00    -0.013 A 
ENDROOT
BRANCH  13  14
ATOM     14  C   UNL     1       6.274  40.285  24.993  0.00  0.00    -0.008 A 
ATOM     15  C   UNL     1       5.369  41.200  25.614  0.00  0.00    +0.008 A 
ATOM     16  C   UNL     1       4.416  41.947  24.863  0.00  0.00    +0.012 A 
ATOM     17  C   UNL     1       3.566  42.827  25.530  0.00  0.00    +0.020 A 
ATOM     18  C   UNL     1       3.647  42.964  26.917  0.00  0.00    +0.111 A 
ATOM     19  N   UNL     1       4.552  42.249  27.608  0.00  0.00    -0.255 NA
ATOM     20  C   UNL     1       5.407  41.372  26.973  0.00  0.00    +0.072 A 
ATOM     21  C   UNL     1       6.329  40.645  27.776  0.00  0.00    +0.028 A 
ATOM     22  C   UNL     1       7.211  39.758  27.175  0.00  0.00    +0.003 A 
ATOM     23  C   UNL     1       7.174  39.577  25.792  0.00  0.00    +0.009 A 
ENDBRANCH  13  14
TORSDOF 1
ENDMDL
