MODEL 1
REMARK VINA RESULT:      -9.5      0.000      0.000
REMARK  Name = 6GIN_IR2.pdb
REMARK  3 active torsions:
REMARK  status: ('A' for Active; 'I' for Inactive)
REMARK    1  A    between atoms: _6  and  _7
REMARK    2  A    between atoms: _10  and  _13
REMARK    3  A    between atoms: _19  and  _24
REMARK                            x       y       z     vdW  Elec       q    Type
REMARK                         _______ _______ _______ _____ _____    ______ ____
ROOT
ATOM      1  N   UNL     1      12.058  23.160  20.263  0.00  0.00    -0.257 N 
ATOM      2  C   UNL     1      11.453  23.693  19.135  0.00  0.00    +0.267 A 
ATOM      3  O   UNL     1      12.153  24.149  18.242  0.00  0.00    -0.267 OA
ATOM      4  C   UNL     1       9.948  23.675  19.087  0.00  0.00    +0.074 A 
ATOM      5  C   UNL     1       9.259  24.211  17.981  0.00  0.00    +0.006 A 
ATOM      6  C   UNL     1       7.857  24.211  17.936  0.00  0.00    +0.000 A 
ATOM      7  C   UNL     1       7.120  23.647  18.993  0.00  0.00    +0.002 A 
ATOM      8  C   UNL     1       7.774  23.110  20.091  0.00  0.00    +0.019 A 
ATOM      9  C   UNL     1       9.205  23.138  20.100  0.00  0.00    +0.088 A 
ATOM     10  N   UNL     1       9.847  22.593  21.241  0.00  0.00    -0.225 NA
ATOM     11  C   UNL     1      11.268  22.604  21.286  0.00  0.00    +0.185 A 
ENDROOT
BRANCH   6  12
ATOM     12  C   UNL     1       7.174  24.728  16.824  0.00  0.00    +0.003 A 
ATOM     13  C   UNL     1       7.113  26.156  16.536  0.00  0.00    +0.018 A 
ATOM     14  C   UNL     1       7.731  27.163  17.354  0.00  0.00    +0.001 A 
ATOM     15  C   UNL     1       7.651  28.545  17.091  0.00  0.00    +0.000 A 
ATOM     16  C   UNL     1       6.938  28.941  15.958  0.00  0.00    +0.002 A 
ATOM     17  C   UNL     1       6.360  27.978  15.126  0.00  0.00    +0.019 A 
ATOM     18  C   UNL     1       6.440  26.574  15.425  0.00  0.00    +0.081 A 
ATOM     19  N   UNL     1       5.839  25.634  14.586  0.00  0.00    -0.244 NA
ATOM     20  C   UNL     1       5.890  24.304  14.804  0.00  0.00    +0.099 A 
ATOM     21  C   UNL     1       6.578  23.838  15.944  0.00  0.00    +0.021 A 
ENDBRANCH   6  12
BRANCH   1  25
ATOM     22  C   UNL     1      16.148  22.685  21.046  0.00  0.00    +0.048 A 
ATOM     23  C   UNL     1      15.488  21.755  20.246  0.00  0.00    +0.016 A 
ATOM     24  C   UNL     1      14.135  21.916  19.975  0.00  0.00    +0.019 A 
ATOM     25  C   UNL     1      13.451  23.030  20.458  0.00  0.00    +0.068 A 
ATOM     26  C   UNL     1      14.093  23.931  21.292  0.00  0.00    +0.019 A 
ATOM     27  C   UNL     1      15.440  23.763  21.580  0.00  0.00    +0.016 A 
BRANCH  22  29
ATOM     28  C   UNL     1      18.387  23.648  21.132  0.00  0.00    +0.123 C 
ATOM     29  N   UNL     1      17.543  22.539  21.375  0.00  0.00    -0.303 N 
ATOM     30  C   UNL     1      18.110  21.265  21.156  0.00  0.00    +0.123 C 
ATOM     31  C   UNL     1      19.221  21.248  20.126  0.00  0.00    +0.164 C 
ATOM     32  O   UNL     1      19.204  22.352  19.229  0.00  0.00    -0.350 OA
ATOM     33  C   UNL     1      19.244  23.602  19.874  0.00  0.00    +0.164 C 
ENDBRANCH  22  29
ENDBRANCH   1  25
TORSDOF 3
ENDMDL
MODEL 2
REMARK VINA RESULT:      -9.3      7.658     11.489
REMARK  Name = 6GIN_IR2.pdb
REMARK  3 active torsions:
REMARK  status: ('A' for Active; 'I' for Inactive)
REMARK    1  A    between atoms: _6  and  _7
REMARK    2  A    between atoms: _10  and  _13
REMARK    3  A    between atoms: _19  and  _24
REMARK                            x       y       z     vdW  Elec       q    Type
REMARK                         _______ _______ _______ _____ _____    ______ ____
ROOT
ATOM      1  N   UNL     1      17.567  26.615  13.895  0.00  0.00    -0.257 N 
ATOM      2  C   UNL     1      17.855  26.376  15.230  0.00  0.00    +0.267 A 
ATOM      3  O   UNL     1      18.335  27.275  15.907  0.00  0.00    -0.267 OA
ATOM      4  C   UNL     1      17.553  25.001  15.765  0.00  0.00    +0.074 A 
ATOM      5  C   UNL     1      17.831  24.676  17.107  0.00  0.00    +0.006 A 
ATOM      6  C   UNL     1      17.567  23.393  17.608  0.00  0.00    +0.000 A 
ATOM      7  C   UNL     1      16.991  22.417  16.773  0.00  0.00    +0.002 A 
ATOM      8  C   UNL     1      16.705  22.712  15.449  0.00  0.00    +0.019 A 
ATOM      9  C   UNL     1      17.000  24.031  14.978  0.00  0.00    +0.088 A 
ATOM     10  N   UNL     1      16.707  24.302  13.617  0.00  0.00    -0.225 NA
ATOM     11  C   UNL     1      16.986  25.601  13.111  0.00  0.00    +0.185 A 
ENDROOT
BRANCH   6  12
ATOM     12  C   UNL     1      17.826  23.078  18.951  0.00  0.00    +0.003 A 
ATOM     13  C   UNL     1      16.885  23.381  20.023  0.00  0.00    +0.018 A 
ATOM     14  C   UNL     1      15.621  24.030  19.816  0.00  0.00    +0.001 A 
ATOM     15  C   UNL     1      14.722  24.347  20.854  0.00  0.00    +0.000 A 
ATOM     16  C   UNL     1      15.092  23.989  22.152  0.00  0.00    +0.002 A 
ATOM     17  C   UNL     1      16.299  23.323  22.374  0.00  0.00    +0.019 A 
ATOM     18  C   UNL     1      17.209  23.026  21.300  0.00  0.00    +0.081 A 
ATOM     19  N   UNL     1      18.417  22.375  21.553  0.00  0.00    -0.244 NA
ATOM     20  C   UNL     1      19.304  22.056  20.588  0.00  0.00    +0.099 A 
ATOM     21  C   UNL     1      19.001  22.409  19.257  0.00  0.00    +0.021 A 
ENDBRANCH   6  12
BRANCH   1  25
ATOM     22  C   UNL     1      17.986  30.188  11.743  0.00  0.00    +0.048 A 
ATOM     23  C   UNL     1      16.773  29.896  12.364  0.00  0.00    +0.016 A 
ATOM     24  C   UNL     1      16.635  28.719  13.088  0.00  0.00    +0.019 A 
ATOM     25  C   UNL     1      17.719  27.855  13.236  0.00  0.00    +0.068 A 
ATOM     26  C   UNL     1      18.911  28.119  12.581  0.00  0.00    +0.019 A 
ATOM     27  C   UNL     1      19.047  29.285  11.842  0.00  0.00    +0.016 A 
BRANCH  22  29
ATOM     28  C   UNL     1      17.118  31.738  10.073  0.00  0.00    +0.123 C 
ATOM     29  N   UNL     1      18.162  31.383  10.960  0.00  0.00    -0.303 N 
ATOM     30  C   UNL     1      19.474  31.657  10.518  0.00  0.00    +0.123 C 
ATOM     31  C   UNL     1      19.634  31.660   9.011  0.00  0.00    +0.164 C 
ATOM     32  O   UNL     1      18.618  30.951   8.313  0.00  0.00    -0.350 OA
ATOM     33  C   UNL     1      17.317  31.403   8.602  0.00  0.00    +0.164 C 
ENDBRANCH  22  29
ENDBRANCH   1  25
TORSDOF 3
ENDMDL
MODEL 3
REMARK VINA RESULT:      -9.3      0.736      2.374
REMARK  Name = 6GIN_IR2.pdb
REMARK  3 active torsions:
REMARK  status: ('A' for Active; 'I' for Inactive)
REMARK    1  A    between atoms: _6  and  _7
REMARK    2  A    between atoms: _10  and  _13
REMARK    3  A    between atoms: _19  and  _24
REMARK                            x       y       z     vdW  Elec       q    Type
REMARK                         _______ _______ _______ _____ _____    ______ ____
ROOT
ATOM      1  N   UNL     1      12.040  23.151  20.239  0.00  0.00    -0.257 N 
ATOM      2  C   UNL     1      11.432  23.656  19.100  0.00  0.00    +0.267 A 
ATOM      3  O   UNL     1      12.129  24.086  18.192  0.00  0.00    -0.267 OA
ATOM      4  C   UNL     1       9.926  23.640  19.058  0.00  0.00    +0.074 A 
ATOM      5  C   UNL     1       9.234  24.150  17.942  0.00  0.00    +0.006 A 
ATOM      6  C   UNL     1       7.832  24.152  17.903  0.00  0.00    +0.000 A 
ATOM      7  C   UNL     1       7.098  23.617  18.977  0.00  0.00    +0.002 A 
ATOM      8  C   UNL     1       7.755  23.107  20.086  0.00  0.00    +0.019 A 
ATOM      9  C   UNL     1       9.186  23.133  20.088  0.00  0.00    +0.088 A 
ATOM     10  N   UNL     1       9.831  22.615  21.240  0.00  0.00    -0.225 NA
ATOM     11  C   UNL     1      11.253  22.624  21.279  0.00  0.00    +0.185 A 
ENDROOT
BRANCH   6  12
ATOM     12  C   UNL     1       7.145  24.642  16.780  0.00  0.00    +0.003 A 
ATOM     13  C   UNL     1       6.440  23.767  15.850  0.00  0.00    +0.018 A 
ATOM     14  C   UNL     1       6.386  22.338  15.983  0.00  0.00    +0.001 A 
ATOM     15  C   UNL     1       5.727  21.490  15.071  0.00  0.00    +0.000 A 
ATOM     16  C   UNL     1       5.083  22.092  13.988  0.00  0.00    +0.002 A 
ATOM     17  C   UNL     1       5.090  23.483  13.859  0.00  0.00    +0.019 A 
ATOM     18  C   UNL     1       5.784  24.327  14.792  0.00  0.00    +0.081 A 
ATOM     19  N   UNL     1       5.789  25.713  14.630  0.00  0.00    -0.244 NA
ATOM     20  C   UNL     1       6.409  26.558  15.478  0.00  0.00    +0.099 A 
ATOM     21  C   UNL     1       7.098  26.013  16.582  0.00  0.00    +0.021 A 
ENDBRANCH   6  12
BRANCH   1  25
ATOM     22  C   UNL     1      16.132  22.673  21.011  0.00  0.00    +0.048 A 
ATOM     23  C   UNL     1      15.479  21.770  20.175  0.00  0.00    +0.016 A 
ATOM     24  C   UNL     1      14.126  21.933  19.907  0.00  0.00    +0.019 A 
ATOM     25  C   UNL     1      13.433  23.023  20.432  0.00  0.00    +0.068 A 
ATOM     26  C   UNL     1      14.068  23.894  21.302  0.00  0.00    +0.019 A 
ATOM     27  C   UNL     1      15.415  23.724  21.585  0.00  0.00    +0.016 A 
BRANCH  22  29
ATOM     28  C   UNL     1      18.372  23.632  21.099  0.00  0.00    +0.123 C 
ATOM     29  N   UNL     1      17.526  22.523  21.337  0.00  0.00    -0.303 N 
ATOM     30  C   UNL     1      18.091  21.250  21.111  0.00  0.00    +0.123 C 
ATOM     31  C   UNL     1      19.201  21.237  20.079  0.00  0.00    +0.164 C 
ATOM     32  O   UNL     1      19.184  22.345  19.188  0.00  0.00    -0.350 OA
ATOM     33  C   UNL     1      19.227  23.592  19.840  0.00  0.00    +0.164 C 
ENDBRANCH  22  29
ENDBRANCH   1  25
TORSDOF 3
ENDMDL
MODEL 4
REMARK VINA RESULT:      -9.2      8.046     12.498
REMARK  Name = 6GIN_IR2.pdb
REMARK  3 active torsions:
REMARK  status: ('A' for Active; 'I' for Inactive)
REMARK    1  A    between atoms: _6  and  _7
REMARK    2  A    between atoms: _10  and  _13
REMARK    3  A    between atoms: _19  and  _24
REMARK                            x       y       z     vdW  Elec       q    Type
REMARK                         _______ _______ _______ _____ _____    ______ ____
ROOT
ATOM      1  N   UNL     1      15.397  29.837  12.936  0.00  0.00    -0.257 N 
ATOM      2  C   UNL     1      15.234  28.702  13.715  0.00  0.00    +0.267 A 
ATOM      3  O   UNL     1      14.377  28.696  14.588  0.00  0.00    -0.267 OA
ATOM      4  C   UNL     1      16.140  27.533  13.430  0.00  0.00    +0.074 A 
ATOM      5  C   UNL     1      16.046  26.350  14.189  0.00  0.00    +0.006 A 
ATOM      6  C   UNL     1      16.897  25.264  13.939  0.00  0.00    +0.000 A 
ATOM      7  C   UNL     1      17.844  25.336  12.901  0.00  0.00    +0.002 A 
ATOM      8  C   UNL     1      17.955  26.488  12.138  0.00  0.00    +0.019 A 
ATOM      9  C   UNL     1      17.072  27.576  12.433  0.00  0.00    +0.088 A 
ATOM     10  N   UNL     1      17.216  28.746  11.644  0.00  0.00    -0.225 NA
ATOM     11  C   UNL     1      16.357  29.848  11.908  0.00  0.00    +0.185 A 
ENDROOT
BRANCH   6  12
ATOM     12  C   UNL     1      16.787  24.078  14.683  0.00  0.00    +0.003 A 
ATOM     13  C   UNL     1      17.359  23.935  16.017  0.00  0.00    +0.018 A 
ATOM     14  C   UNL     1      18.088  24.974  16.689  0.00  0.00    +0.001 A 
ATOM     15  C   UNL     1      18.664  24.828  17.967  0.00  0.00    +0.000 A 
ATOM     16  C   UNL     1      18.494  23.599  18.609  0.00  0.00    +0.002 A 
ATOM     17  C   UNL     1      17.756  22.586  17.991  0.00  0.00    +0.019 A 
ATOM     18  C   UNL     1      17.194  22.752  16.679  0.00  0.00    +0.081 A 
ATOM     19  N   UNL     1      16.475  21.718  16.078  0.00  0.00    -0.244 NA
ATOM     20  C   UNL     1      15.912  21.817  14.856  0.00  0.00    +0.099 A 
ATOM     21  C   UNL     1      16.065  23.025  14.144  0.00  0.00    +0.021 A 
ENDBRANCH   6  12
BRANCH   1  25
ATOM     22  C   UNL     1      13.168  33.385  13.004  0.00  0.00    +0.048 A 
ATOM     23  C   UNL     1      12.701  32.293  12.276  0.00  0.00    +0.016 A 
ATOM     24  C   UNL     1      13.431  31.112  12.261  0.00  0.00    +0.019 A 
ATOM     25  C   UNL     1      14.601  31.000  13.012  0.00  0.00    +0.068 A 
ATOM     26  C   UNL     1      15.092  32.100  13.698  0.00  0.00    +0.019 A 
ATOM     27  C   UNL     1      14.374  33.287  13.700  0.00  0.00    +0.016 A 
BRANCH  22  29
ATOM     28  C   UNL     1      11.764  35.008  11.846  0.00  0.00    +0.123 C 
ATOM     29  N   UNL     1      12.456  34.637  13.022  0.00  0.00    -0.303 N 
ATOM     30  C   UNL     1      13.053  35.688  13.752  0.00  0.00    +0.123 C 
ATOM     31  C   UNL     1      13.437  36.888  12.910  0.00  0.00    +0.164 C 
ATOM     32  O   UNL     1      13.583  36.607  11.524  0.00  0.00    -0.350 OA
ATOM     33  C   UNL     1      12.437  36.033  10.943  0.00  0.00    +0.164 C 
ENDBRANCH  22  29
ENDBRANCH   1  25
TORSDOF 3
ENDMDL
MODEL 5
REMARK VINA RESULT:      -9.2      2.932      3.963
REMARK  Name = 6GIN_IR2.pdb
REMARK  3 active torsions:
REMARK  status: ('A' for Active; 'I' for Inactive)
REMARK    1  A    between atoms: _6  and  _7
REMARK    2  A    between atoms: _10  and  _13
REMARK    3  A    between atoms: _19  and  _24
REMARK                            x       y       z     vdW  Elec       q    Type
REMARK                         _______ _______ _______ _____ _____    ______ ____
ROOT
ATOM      1  N   UNL     1      10.758  24.631  17.025  0.00  0.00    -0.257 N 
ATOM      2  C   UNL     1      10.289  24.773  15.728  0.00  0.00    +0.267 A 
ATOM      3  O   UNL     1      11.088  24.972  14.823  0.00  0.00    -0.267 OA
ATOM      4  C   UNL     1       8.801  24.673  15.518  0.00  0.00    +0.074 A 
ATOM      5  C   UNL     1       8.247  24.821  14.232  0.00  0.00    +0.006 A 
ATOM      6  C   UNL     1       6.861  24.744  14.031  0.00  0.00    +0.000 A 
ATOM      7  C   UNL     1       6.006  24.489  15.119  0.00  0.00    +0.002 A 
ATOM      8  C   UNL     1       6.527  24.336  16.394  0.00  0.00    +0.019 A 
ATOM      9  C   UNL     1       7.946  24.431  16.555  0.00  0.00    +0.088 A 
ATOM     10  N   UNL     1       8.450  24.282  17.872  0.00  0.00    -0.225 NA
ATOM     11  C   UNL     1       9.855  24.371  18.072  0.00  0.00    +0.185 A 
ENDROOT
BRANCH   6  12
ATOM     12  C   UNL     1       6.312  24.872  12.745  0.00  0.00    +0.003 A 
ATOM     13  C   UNL     1       5.851  26.150  12.214  0.00  0.00    +0.018 A 
ATOM     14  C   UNL     1       5.903  27.385  12.945  0.00  0.00    +0.001 A 
ATOM     15  C   UNL     1       5.434  28.615  12.443  0.00  0.00    +0.000 A 
ATOM     16  C   UNL     1       4.903  28.618  11.152  0.00  0.00    +0.002 A 
ATOM     17  C   UNL     1       4.876  27.436  10.406  0.00  0.00    +0.019 A 
ATOM     18  C   UNL     1       5.344  26.189  10.947  0.00  0.00    +0.081 A 
ATOM     19  N   UNL     1       5.290  25.020  10.187  0.00  0.00    -0.244 NA
ATOM     20  C   UNL     1       5.726  23.824  10.632  0.00  0.00    +0.099 A 
ATOM     21  C   UNL     1       6.255  23.748  11.937  0.00  0.00    +0.021 A 
ENDBRANCH   6  12
BRANCH   1  25
ATOM     22  C   UNL     1      14.727  24.615  18.372  0.00  0.00    +0.048 A 
ATOM     23  C   UNL     1      14.155  23.435  17.901  0.00  0.00    +0.016 A 
ATOM     24  C   UNL     1      12.844  23.440  17.443  0.00  0.00    +0.019 A 
ATOM     25  C   UNL     1      12.118  24.629  17.406  0.00  0.00    +0.068 A 
ATOM     26  C   UNL     1      12.667  25.793  17.918  0.00  0.00    +0.019 A 
ATOM     27  C   UNL     1      13.971  25.788  18.393  0.00  0.00    +0.016 A 
BRANCH  22  29
ATOM     28  C   UNL     1      17.117  24.851  17.950  0.00  0.00    +0.123 C 
ATOM     29  N   UNL     1      16.073  24.647  18.882  0.00  0.00    -0.303 N 
ATOM     30  C   UNL     1      16.358  23.777  19.956  0.00  0.00    +0.123 C 
ATOM     31  C   UNL     1      17.404  22.726  19.643  0.00  0.00    +0.164 C 
ATOM     32  O   UNL     1      17.580  22.472  18.255  0.00  0.00    -0.350 OA
ATOM     33  C   UNL     1      17.899  23.622  17.509  0.00  0.00    +0.164 C 
ENDBRANCH  22  29
ENDBRANCH   1  25
TORSDOF 3
ENDMDL
MODEL 6
REMARK VINA RESULT:      -9.2      7.777     11.145
REMARK  Name = 6GIN_IR2.pdb
REMARK  3 active torsions:
REMARK  status: ('A' for Active; 'I' for Inactive)
REMARK    1  A    between atoms: _6  and  _7
REMARK    2  A    between atoms: _10  and  _13
REMARK    3  A    between atoms: _19  and  _24
REMARK                            x       y       z     vdW  Elec       q    Type
REMARK                         _______ _______ _______ _____ _____    ______ ____
ROOT
ATOM      1  N   UNL     1      13.467  25.940  14.698  0.00  0.00    -0.257 N 
ATOM      2  C   UNL     1      14.175  27.016  14.184  0.00  0.00    +0.267 A 
ATOM      3  O   UNL     1      13.674  28.131  14.218  0.00  0.00    -0.267 OA
ATOM      4  C   UNL     1      15.536  26.732  13.605  0.00  0.00    +0.074 A 
ATOM      5  C   UNL     1      16.311  27.769  13.050  0.00  0.00    +0.006 A 
ATOM      6  C   UNL     1      17.573  27.509  12.497  0.00  0.00    +0.000 A 
ATOM      7  C   UNL     1      18.093  26.202  12.515  0.00  0.00    +0.002 A 
ATOM      8  C   UNL     1      17.352  25.164  13.058  0.00  0.00    +0.019 A 
ATOM      9  C   UNL     1      16.065  25.472  13.604  0.00  0.00    +0.088 A 
ATOM     10  N   UNL     1      15.325  24.389  14.142  0.00  0.00    -0.225 NA
ATOM     11  C   UNL     1      14.041  24.656  14.693  0.00  0.00    +0.185 A 
ENDROOT
BRANCH   6  12
ATOM     12  C   UNL     1      18.352  28.548  11.962  0.00  0.00    +0.003 A 
ATOM     13  C   UNL     1      17.906  29.362  10.837  0.00  0.00    +0.018 A 
ATOM     14  C   UNL     1      16.649  29.180  10.168  0.00  0.00    +0.001 A 
ATOM     15  C   UNL     1      16.228  29.948   9.064  0.00  0.00    +0.000 A 
ATOM     16  C   UNL     1      17.091  30.951   8.617  0.00  0.00    +0.002 A 
ATOM     17  C   UNL     1      18.303  31.172   9.276  0.00  0.00    +0.019 A 
ATOM     18  C   UNL     1      18.719  30.363  10.389  0.00  0.00    +0.081 A 
ATOM     19  N   UNL     1      19.942  30.595  11.018  0.00  0.00    -0.244 NA
ATOM     20  C   UNL     1      20.381  29.880  12.074  0.00  0.00    +0.099 A 
ATOM     21  C   UNL     1      19.567  28.838  12.563  0.00  0.00    +0.021 A 
ENDBRANCH   6  12
BRANCH   1  25
ATOM     22  C   UNL     1       9.749  26.406  16.577  0.00  0.00    +0.048 A 
ATOM     23  C   UNL     1       9.800  26.077  15.224  0.00  0.00    +0.016 A 
ATOM     24  C   UNL     1      11.030  25.910  14.601  0.00  0.00    +0.019 A 
ATOM     25  C   UNL     1      12.210  26.021  15.336  0.00  0.00    +0.068 A 
ATOM     26  C   UNL     1      12.163  26.395  16.670  0.00  0.00    +0.019 A 
ATOM     27  C   UNL     1      10.936  26.580  17.290  0.00  0.00    +0.016 A 
BRANCH  22  29
ATOM     28  C   UNL     1       7.756  25.469  17.624  0.00  0.00    +0.123 C 
ATOM     29  N   UNL     1       8.496  26.616  17.254  0.00  0.00    -0.303 N 
ATOM     30  C   UNL     1       7.742  27.737  16.845  0.00  0.00    +0.123 C 
ATOM     31  C   UNL     1       6.393  27.393  16.245  0.00  0.00    +0.164 C 
ATOM     32  O   UNL     1       6.291  26.060  15.761  0.00  0.00    -0.350 OA
ATOM     33  C   UNL     1       6.583  25.085  16.733  0.00  0.00    +0.164 C 
ENDBRANCH  22  29
ENDBRANCH   1  25
TORSDOF 3
ENDMDL
MODEL 7
REMARK VINA RESULT:      -9.2      3.771      5.781
REMARK  Name = 6GIN_IR2.pdb
REMARK  3 active torsions:
REMARK  status: ('A' for Active; 'I' for Inactive)
REMARK    1  A    between atoms: _6  and  _7
REMARK    2  A    between atoms: _10  and  _13
REMARK    3  A    between atoms: _19  and  _24
REMARK                            x       y       z     vdW  Elec       q    Type
REMARK                         _______ _______ _______ _____ _____    ______ ____
ROOT
ATOM      1  N   UNL     1       9.591  26.907  16.604  0.00  0.00    -0.257 N 
ATOM      2  C   UNL     1       9.228  26.389  15.370  0.00  0.00    +0.267 A 
ATOM      3  O   UNL     1      10.025  25.695  14.756  0.00  0.00    -0.267 OA
ATOM      4  C   UNL     1       7.851  26.726  14.860  0.00  0.00    +0.074 A 
ATOM      5  C   UNL     1       7.414  26.251  13.608  0.00  0.00    +0.006 A 
ATOM      6  C   UNL     1       6.139  26.573  13.120  0.00  0.00    +0.000 A 
ATOM      7  C   UNL     1       5.267  27.359  13.896  0.00  0.00    +0.002 A 
ATOM      8  C   UNL     1       5.672  27.836  15.133  0.00  0.00    +0.019 A 
ATOM      9  C   UNL     1       6.984  27.491  15.588  0.00  0.00    +0.088 A 
ATOM     10  N   UNL     1       7.376  28.002  16.851  0.00  0.00    -0.225 NA
ATOM     11  C   UNL     1       8.674  27.681  17.337  0.00  0.00    +0.185 A 
ENDROOT
BRANCH   6  12
ATOM     12  C   UNL     1       5.698  26.082  11.881  0.00  0.00    +0.003 A 
ATOM     13  C   UNL     1       5.216  26.956  10.818  0.00  0.00    +0.018 A 
ATOM     14  C   UNL     1       5.138  28.386  10.934  0.00  0.00    +0.001 A 
ATOM     15  C   UNL     1       4.648  29.230   9.917  0.00  0.00    +0.000 A 
ATOM     16  C   UNL     1       4.232  28.626   8.729  0.00  0.00    +0.002 A 
ATOM     17  C   UNL     1       4.335  27.240   8.579  0.00  0.00    +0.019 A 
ATOM     18  C   UNL     1       4.820  26.398   9.637  0.00  0.00    +0.081 A 
ATOM     19  N   UNL     1       4.896  25.015   9.467  0.00  0.00    -0.244 NA
ATOM     20  C   UNL     1       5.356  24.174  10.415  0.00  0.00    +0.099 A 
ATOM     21  C   UNL     1       5.773  24.718  11.648  0.00  0.00    +0.021 A 
ENDBRANCH   6  12
BRANCH   1  25
ATOM     22  C   UNL     1      13.256  25.990  18.419  0.00  0.00    +0.048 A 
ATOM     23  C   UNL     1      13.135  27.153  17.661  0.00  0.00    +0.016 A 
ATOM     24  C   UNL     1      11.919  27.466  17.069  0.00  0.00    +0.019 A 
ATOM     25  C   UNL     1      10.808  26.647  17.271  0.00  0.00    +0.068 A 
ATOM     26  C   UNL     1      10.939  25.466  17.984  0.00  0.00    +0.019 A 
ATOM     27  C   UNL     1      12.157  25.142  18.563  0.00  0.00    +0.016 A 
BRANCH  22  29
ATOM     28  C   UNL     1      15.692  26.107  18.431  0.00  0.00    +0.123 C 
ATOM     29  N   UNL     1      14.507  25.615  19.026  0.00  0.00    -0.303 N 
ATOM     30  C   UNL     1      14.577  24.313  19.568  0.00  0.00    +0.123 C 
ATOM     31  C   UNL     1      15.601  23.417  18.901  0.00  0.00    +0.164 C 
ATOM     32  O   UNL     1      15.976  23.830  17.593  0.00  0.00    -0.350 OA
ATOM     33  C   UNL     1      16.467  25.148  17.538  0.00  0.00    +0.164 C 
ENDBRANCH  22  29
ENDBRANCH   1  25
TORSDOF 3
ENDMDL
MODEL 8
REMARK VINA RESULT:      -9.1      6.345      8.684
REMARK  Name = 6GIN_IR2.pdb
REMARK  3 active torsions:
REMARK  status: ('A' for Active; 'I' for Inactive)
REMARK    1  A    between atoms: _6  and  _7
REMARK    2  A    between atoms: _10  and  _13
REMARK    3  A    between atoms: _19  and  _24
REMARK                            x       y       z     vdW  Elec       q    Type
REMARK                         _______ _______ _______ _____ _____    ______ ____
ROOT
ATOM      1  N   UNL     1      14.181  23.448  17.041  0.00  0.00    -0.257 N 
ATOM      2  C   UNL     1      14.294  24.730  16.524  0.00  0.00    +0.267 A 
ATOM      3  O   UNL     1      13.593  25.622  16.983  0.00  0.00    -0.267 OA
ATOM      4  C   UNL     1      15.288  24.941  15.413  0.00  0.00    +0.074 A 
ATOM      5  C   UNL     1      15.450  26.211  14.826  0.00  0.00    +0.006 A 
ATOM      6  C   UNL     1      16.363  26.411  13.780  0.00  0.00    +0.000 A 
ATOM      7  C   UNL     1      17.152  25.340  13.321  0.00  0.00    +0.002 A 
ATOM      8  C   UNL     1      17.014  24.080  13.884  0.00  0.00    +0.019 A 
ATOM      9  C   UNL     1      16.064  23.920  14.943  0.00  0.00    +0.088 A 
ATOM     10  N   UNL     1      15.936  22.618  15.492  0.00  0.00    -0.225 NA
ATOM     11  C   UNL     1      15.002  22.419  16.545  0.00  0.00    +0.185 A 
ENDROOT
BRANCH   6  12
ATOM     12  C   UNL     1      16.537  27.682  13.211  0.00  0.00    +0.003 A 
ATOM     13  C   UNL     1      15.880  28.083  11.972  0.00  0.00    +0.018 A 
ATOM     14  C   UNL     1      15.007  27.226  11.218  0.00  0.00    +0.001 A 
ATOM     15  C   UNL     1      14.391  27.603  10.008  0.00  0.00    +0.000 A 
ATOM     16  C   UNL     1      14.644  28.892   9.536  0.00  0.00    +0.002 A 
ATOM     17  C   UNL     1      15.459  29.757  10.271  0.00  0.00    +0.019 A 
ATOM     18  C   UNL     1      16.091  29.344  11.495  0.00  0.00    +0.081 A 
ATOM     19  N   UNL     1      16.914  30.222  12.201  0.00  0.00    -0.244 NA
ATOM     20  C   UNL     1      17.523  29.899  13.360  0.00  0.00    +0.099 A 
ATOM     21  C   UNL     1      17.326  28.603  13.881  0.00  0.00    +0.021 A 
ENDBRANCH   6  12
BRANCH   1  25
ATOM     22  C   UNL     1      11.644  22.174  20.124  0.00  0.00    +0.048 A 
ATOM     23  C   UNL     1      12.981  21.784  20.128  0.00  0.00    +0.016 A 
ATOM     24  C   UNL     1      13.828  22.214  19.114  0.00  0.00    +0.019 A 
ATOM     25  C   UNL     1      13.355  23.075  18.123  0.00  0.00    +0.068 A 
ATOM     26  C   UNL     1      12.015  23.425  18.091  0.00  0.00    +0.019 A 
ATOM     27  C   UNL     1      11.163  22.982  19.092  0.00  0.00    +0.016 A 
BRANCH  22  29
ATOM     28  C   UNL     1      10.143  20.449  20.971  0.00  0.00    +0.123 C 
ATOM     29  N   UNL     1      10.727  21.727  21.140  0.00  0.00    -0.303 N 
ATOM     30  C   UNL     1       9.905  22.715  21.724  0.00  0.00    +0.123 C 
ATOM     31  C   UNL     1       8.423  22.508  21.489  0.00  0.00    +0.164 C 
ATOM     32  O   UNL     1       8.117  21.678  20.375  0.00  0.00    -0.350 OA
ATOM     33  C   UNL     1       8.717  20.406  20.440  0.00  0.00    +0.164 C 
ENDBRANCH  22  29
ENDBRANCH   1  25
TORSDOF 3
ENDMDL
MODEL 9
REMARK VINA RESULT:      -9.1      3.220     10.929
REMARK  Name = 6GIN_IR2.pdb
REMARK  3 active torsions:
REMARK  status: ('A' for Active; 'I' for Inactive)
REMARK    1  A    between atoms: _6  and  _7
REMARK    2  A    between atoms: _10  and  _13
REMARK    3  A    between atoms: _19  and  _24
REMARK                            x       y       z     vdW  Elec       q    Type
REMARK                         _______ _______ _______ _____ _____    ______ ____
ROOT
ATOM      1  N   UNL     1      11.011  26.815  16.556  0.00  0.00    -0.257 N 
ATOM      2  C   UNL     1      11.470  25.941  17.530  0.00  0.00    +0.267 A 
ATOM      3  O   UNL     1      10.695  25.128  18.014  0.00  0.00    -0.267 OA
ATOM      4  C   UNL     1      12.916  26.055  17.933  0.00  0.00    +0.074 A 
ATOM      5  C   UNL     1      13.453  25.214  18.926  0.00  0.00    +0.006 A 
ATOM      6  C   UNL     1      14.796  25.325  19.317  0.00  0.00    +0.000 A 
ATOM      7  C   UNL     1      15.633  26.271  18.697  0.00  0.00    +0.002 A 
ATOM      8  C   UNL     1      15.129  27.109  17.714  0.00  0.00    +0.019 A 
ATOM      9  C   UNL     1      13.752  26.967  17.352  0.00  0.00    +0.088 A 
ATOM     10  N   UNL     1      13.262  27.846  16.353  0.00  0.00    -0.225 NA
ATOM     11  C   UNL     1      11.897  27.735  15.967  0.00  0.00    +0.185 A 
ENDROOT
BRANCH   6  12
ATOM     12  C   UNL     1      15.334  24.471  20.293  0.00  0.00    +0.003 A 
ATOM     13  C   UNL     1      16.583  23.744  20.096  0.00  0.00    +0.018 A 
ATOM     14  C   UNL     1      17.372  23.822  18.898  0.00  0.00    +0.001 A 
ATOM     15  C   UNL     1      18.565  23.101  18.697  0.00  0.00    +0.000 A 
ATOM     16  C   UNL     1      18.999  22.278  19.737  0.00  0.00    +0.002 A 
ATOM     17  C   UNL     1      18.268  22.215  20.927  0.00  0.00    +0.019 A 
ATOM     18  C   UNL     1      17.043  22.946  21.103  0.00  0.00    +0.081 A 
ATOM     19  N   UNL     1      16.325  22.852  22.295  0.00  0.00    -0.244 NA
ATOM     20  C   UNL     1      15.178  23.523  22.526  0.00  0.00    +0.099 A 
ATOM     21  C   UNL     1      14.673  24.357  21.507  0.00  0.00    +0.021 A 
ENDBRANCH   6  12
BRANCH   1  25
ATOM     22  C   UNL     1       7.196  27.015  14.831  0.00  0.00    +0.048 A 
ATOM     23  C   UNL     1       8.192  26.261  14.214  0.00  0.00    +0.016 A 
ATOM     24  C   UNL     1       9.454  26.183  14.789  0.00  0.00    +0.019 A 
ATOM     25  C   UNL     1       9.711  26.814  16.006  0.00  0.00    +0.068 A 
ATOM     26  C   UNL     1       8.737  27.603  16.596  0.00  0.00    +0.019 A 
ATOM     27  C   UNL     1       7.481  27.698  16.015  0.00  0.00    +0.016 A 
BRANCH  22  29
ATOM     28  C   UNL     1       5.314  25.990  13.668  0.00  0.00    +0.123 C 
ATOM     29  N   UNL     1       5.884  27.145  14.252  0.00  0.00    -0.303 N 
ATOM     30  C   UNL     1       5.598  28.372  13.615  0.00  0.00    +0.123 C 
ATOM     31  C   UNL     1       5.316  28.249  12.131  0.00  0.00    +0.164 C 
ATOM     32  O   UNL     1       5.827  27.063  11.534  0.00  0.00    -0.350 OA
ATOM     33  C   UNL     1       5.372  25.883  12.151  0.00  0.00    +0.164 C 
ENDBRANCH  22  29
ENDBRANCH   1  25
TORSDOF 3
ENDMDL
