MODEL 1
REMARK VINA RESULT:      -8.1      0.000      0.000
REMARK  Name = 3OOM_507.pdb
REMARK  4 active torsions:
REMARK  status: ('A' for Active; 'I' for Inactive)
REMARK    1  A    between atoms: _1  and  _18
REMARK    2  A    between atoms: _16  and  _24
REMARK    3  A    between atoms: _18  and  _19
REMARK    4  A    between atoms: _20  and  _22
REMARK                            x       y       z     vdW  Elec       q    Type
REMARK                         _______ _______ _______ _____ _____    ______ ____
ROOT
ATOM      1  C   UNL     1      17.789  22.864  18.451  0.00  0.00    +0.093 A 
ATOM      2  N   UNL     1      16.944  23.301  19.437  0.00  0.00    -0.211 N 
ATOM      3  C   UNL     1      17.621  23.198  20.624  0.00  0.00    +0.155 A 
ATOM      4  N   UNL     1      18.833  22.717  20.375  0.00  0.00    -0.234 NA
ATOM      5  C   UNL     1      16.980  23.584  21.816  0.00  0.00    +0.051 A 
ATOM      6  C   UNL     1      15.703  24.051  21.765  0.00  0.00    +0.049 A 
ATOM      7  C   UNL     1      15.036  24.145  20.529  0.00  0.00    +0.140 A 
ATOM      8  N   UNL     1      13.730  24.624  20.487  0.00  0.00    -0.325 N 
ATOM      9  H   UNL     1      13.284  24.890  21.306  0.00  0.00    +0.148 HD
ATOM     10  N   UNL     1      15.632  23.786  19.417  0.00  0.00    -0.150 NA
ATOM     11  C   UNL     1      18.968  22.504  19.070  0.00  0.00    +0.141 A 
ENDROOT
BRANCH   1  14
ATOM     12  C   UNL     1      17.022  23.886  14.907  0.00  0.00    +0.018 A 
ATOM     13  C   UNL     1      17.303  23.963  16.273  0.00  0.00    +0.021 A 
ATOM     14  C   UNL     1      17.494  22.793  17.005  0.00  0.00    +0.003 A 
ATOM     15  C   UNL     1      17.404  21.552  16.369  0.00  0.00    +0.010 A 
ATOM     16  C   UNL     1      17.127  21.482  15.018  0.00  0.00    +0.001 A 
ATOM     17  C   UNL     1      16.936  22.636  14.285  0.00  0.00    +0.011 A 
BRANCH  12  19
ATOM     18  C   UNL     1      17.721  25.424  12.958  0.00  0.00    +0.091 C 
ATOM     19  C   UNL     1      16.819  25.116  14.125  0.00  0.00    +0.160 C 
ATOM     20  O   UNL     1      15.926  25.882  14.420  0.00  0.00    -0.292 OA
ENDBRANCH  12  19
ENDBRANCH   1  14
BRANCH   8  21
ATOM     21  C   UNL     1      13.028  24.725  19.205  0.00  0.00    +0.076 C 
ATOM     22  C   UNL     1      11.579  24.258  19.375  0.00  0.00    +0.050 C 
ATOM     23  C   UNL     1      10.833  24.441  18.052  0.00  0.00    +0.161 C 
ATOM     24  O   UNL     1      10.900  25.813  17.654  0.00  0.00    -0.380 OA
ATOM     25  C   UNL     1      12.228  26.291  17.435  0.00  0.00    +0.161 C 
ATOM     26  C   UNL     1      13.030  26.183  18.734  0.00  0.00    +0.050 C 
ENDBRANCH   8  21
TORSDOF 3
ENDMDL
MODEL 2
REMARK VINA RESULT:      -8.1      6.737     10.089
REMARK  Name = 3OOM_507.pdb
REMARK  4 active torsions:
REMARK  status: ('A' for Active; 'I' for Inactive)
REMARK    1  A    between atoms: _1  and  _18
REMARK    2  A    between atoms: _16  and  _24
REMARK    3  A    between atoms: _18  and  _19
REMARK    4  A    between atoms: _20  and  _22
REMARK                            x       y       z     vdW  Elec       q    Type
REMARK                         _______ _______ _______ _____ _____    ______ ____
ROOT
ATOM      1  C   UNL     1       7.242  24.157  18.118  0.00  0.00    +0.093 A 
ATOM      2  N   UNL     1       6.659  23.213  17.314  0.00  0.00    -0.211 N 
ATOM      3  C   UNL     1       6.383  22.127  18.102  0.00  0.00    +0.155 A 
ATOM      4  N   UNL     1       6.781  22.395  19.341  0.00  0.00    -0.234 NA
ATOM      5  C   UNL     1       5.774  20.996  17.526  0.00  0.00    +0.051 A 
ATOM      6  C   UNL     1       5.475  21.005  16.199  0.00  0.00    +0.049 A 
ATOM      7  C   UNL     1       5.771  22.137  15.417  0.00  0.00    +0.140 A 
ATOM      8  N   UNL     1       5.460  22.137  14.060  0.00  0.00    -0.325 N 
ATOM      9  H   UNL     1       5.042  21.360  13.659  0.00  0.00    +0.148 HD
ATOM     10  N   UNL     1       6.338  23.192  15.953  0.00  0.00    -0.150 NA
ATOM     11  C   UNL     1       7.305  23.616  19.384  0.00  0.00    +0.141 A 
ENDROOT
BRANCH   1  14
ATOM     12  C   UNL     1       9.479  26.951  16.944  0.00  0.00    +0.018 A 
ATOM     13  C   UNL     1       9.042  25.682  17.330  0.00  0.00    +0.021 A 
ATOM     14  C   UNL     1       7.713  25.496  17.706  0.00  0.00    +0.003 A 
ATOM     15  C   UNL     1       6.828  26.577  17.696  0.00  0.00    +0.010 A 
ATOM     16  C   UNL     1       7.267  27.830  17.313  0.00  0.00    +0.001 A 
ATOM     17  C   UNL     1       8.581  28.024  16.938  0.00  0.00    +0.011 A 
BRANCH  12  19
ATOM     18  C   UNL     1      11.994  26.856  17.513  0.00  0.00    +0.091 C 
ATOM     19  C   UNL     1      10.880  27.159  16.544  0.00  0.00    +0.160 C 
ATOM     20  O   UNL     1      11.138  27.575  15.434  0.00  0.00    -0.292 OA
ENDBRANCH  12  19
ENDBRANCH   1  14
BRANCH   8  21
ATOM     21  C   UNL     1       5.766  23.311  13.238  0.00  0.00    +0.076 C 
ATOM     22  C   UNL     1       6.435  22.865  11.935  0.00  0.00    +0.050 C 
ATOM     23  C   UNL     1       6.679  24.089  11.050  0.00  0.00    +0.161 C 
ATOM     24  O   UNL     1       5.437  24.753  10.803  0.00  0.00    -0.380 OA
ATOM     25  C   UNL     1       4.789  25.233  11.983  0.00  0.00    +0.161 C 
ATOM     26  C   UNL     1       4.469  24.055  12.906  0.00  0.00    +0.050 C 
ENDBRANCH   8  21
TORSDOF 3
ENDMDL
MODEL 3
REMARK VINA RESULT:      -8.1      8.917     11.099
REMARK  Name = 3OOM_507.pdb
REMARK  4 active torsions:
REMARK  status: ('A' for Active; 'I' for Inactive)
REMARK    1  A    between atoms: _1  and  _18
REMARK    2  A    between atoms: _16  and  _24
REMARK    3  A    between atoms: _18  and  _19
REMARK    4  A    between atoms: _20  and  _22
REMARK                            x       y       z     vdW  Elec       q    Type
REMARK                         _______ _______ _______ _____ _____    ______ ____
ROOT
ATOM      1  C   UNL     1       6.238  21.807  17.468  0.00  0.00    +0.093 A 
ATOM      2  N   UNL     1       6.108  22.391  16.235  0.00  0.00    -0.211 N 
ATOM      3  C   UNL     1       5.790  21.396  15.349  0.00  0.00    +0.155 A 
ATOM      4  N   UNL     1       5.727  20.247  16.013  0.00  0.00    -0.234 NA
ATOM      5  C   UNL     1       5.596  21.719  13.993  0.00  0.00    +0.051 A 
ATOM      6  C   UNL     1       5.730  23.012  13.591  0.00  0.00    +0.049 A 
ATOM      7  C   UNL     1       6.057  24.011  14.527  0.00  0.00    +0.140 A 
ATOM      8  N   UNL     1       6.191  25.331  14.106  0.00  0.00    -0.325 N 
ATOM      9  H   UNL     1       6.060  25.558  13.173  0.00  0.00    +0.148 HD
ATOM     10  N   UNL     1       6.237  23.711  15.792  0.00  0.00    -0.150 NA
ATOM     11  C   UNL     1       5.993  20.461  17.297  0.00  0.00    +0.141 A 
ENDROOT
BRANCH   1  14
ATOM     12  C   UNL     1       6.147  24.216  20.362  0.00  0.00    +0.018 A 
ATOM     13  C   UNL     1       5.819  23.576  19.165  0.00  0.00    +0.021 A 
ATOM     14  C   UNL     1       6.576  22.489  18.735  0.00  0.00    +0.003 A 
ATOM     15  C   UNL     1       7.657  22.045  19.502  0.00  0.00    +0.010 A 
ATOM     16  C   UNL     1       7.976  22.681  20.686  0.00  0.00    +0.001 A 
ATOM     17  C   UNL     1       7.232  23.760  21.120  0.00  0.00    +0.011 A 
BRANCH  12  19
ATOM     18  C   UNL     1       4.609  26.218  19.832  0.00  0.00    +0.091 C 
ATOM     19  C   UNL     1       5.354  25.366  20.826  0.00  0.00    +0.160 C 
ATOM     20  O   UNL     1       5.300  25.627  22.010  0.00  0.00    -0.292 OA
ENDBRANCH  12  19
ENDBRANCH   1  14
BRANCH   8  21
ATOM     21  C   UNL     1       6.532  26.377  15.074  0.00  0.00    +0.076 C 
ATOM     22  C   UNL     1       8.055  26.486  15.196  0.00  0.00    +0.050 C 
ATOM     23  C   UNL     1       8.402  27.633  16.147  0.00  0.00    +0.161 C 
ATOM     24  O   UNL     1       7.825  28.847  15.660  0.00  0.00    -0.380 OA
ATOM     25  C   UNL     1       6.400  28.819  15.570  0.00  0.00    +0.161 C 
ATOM     26  C   UNL     1       5.971  27.720  14.595  0.00  0.00    +0.050 C 
ENDBRANCH   8  21
TORSDOF 3
ENDMDL
MODEL 4
REMARK VINA RESULT:      -7.9     10.221     12.354
REMARK  Name = 3OOM_507.pdb
REMARK  4 active torsions:
REMARK  status: ('A' for Active; 'I' for Inactive)
REMARK    1  A    between atoms: _1  and  _18
REMARK    2  A    between atoms: _16  and  _24
REMARK    3  A    between atoms: _18  and  _19
REMARK    4  A    between atoms: _20  and  _22
REMARK                            x       y       z     vdW  Elec       q    Type
REMARK                         _______ _______ _______ _____ _____    ______ ____
ROOT
ATOM      1  C   UNL     1       6.118  26.838  15.441  0.00  0.00    +0.093 A 
ATOM      2  N   UNL     1       5.817  26.779  14.106  0.00  0.00    -0.211 N 
ATOM      3  C   UNL     1       5.794  28.067  13.640  0.00  0.00    +0.155 A 
ATOM      4  N   UNL     1       6.071  28.883  14.651  0.00  0.00    -0.234 NA
ATOM      5  C   UNL     1       5.507  28.302  12.282  0.00  0.00    +0.051 A 
ATOM      6  C   UNL     1       5.257  27.246  11.462  0.00  0.00    +0.049 A 
ATOM      7  C   UNL     1       5.288  25.934  11.972  0.00  0.00    +0.140 A 
ATOM      8  N   UNL     1       5.031  24.860  11.125  0.00  0.00    -0.325 N 
ATOM      9  H   UNL     1       4.832  25.018  10.189  0.00  0.00    +0.148 HD
ATOM     10  N   UNL     1       5.556  25.714  13.238  0.00  0.00    -0.150 NA
ATOM     11  C   UNL     1       6.272  28.171  15.755  0.00  0.00    +0.141 A 
ENDROOT
BRANCH   1  14
ATOM     12  C   UNL     1       6.165  24.784  18.599  0.00  0.00    +0.018 A 
ATOM     13  C   UNL     1       6.035  25.871  17.731  0.00  0.00    +0.021 A 
ATOM     14  C   UNL     1       6.250  25.693  16.366  0.00  0.00    +0.003 A 
ATOM     15  C   UNL     1       6.593  24.431  15.875  0.00  0.00    +0.010 A 
ATOM     16  C   UNL     1       6.719  23.360  16.737  0.00  0.00    +0.001 A 
ATOM     17  C   UNL     1       6.508  23.526  18.091  0.00  0.00    +0.011 A 
BRANCH  12  19
ATOM     18  C   UNL     1       5.069  26.087  20.537  0.00  0.00    +0.091 C 
ATOM     19  C   UNL     1       5.940  24.961  20.043  0.00  0.00    +0.160 C 
ATOM     20  O   UNL     1       6.455  24.200  20.835  0.00  0.00    -0.292 OA
ENDBRANCH  12  19
ENDBRANCH   1  14
BRANCH   8  21
ATOM     21  C   UNL     1       5.062  23.492  11.647  0.00  0.00    +0.076 C 
ATOM     22  C   UNL     1       4.392  22.546  10.647  0.00  0.00    +0.050 C 
ATOM     23  C   UNL     1       4.498  21.109  11.164  0.00  0.00    +0.161 C 
ATOM     24  O   UNL     1       5.874  20.776  11.362  0.00  0.00    -0.380 OA
ATOM     25  C   UNL     1       6.539  21.598  12.323  0.00  0.00    +0.161 C 
ATOM     26  C   UNL     1       6.515  23.055  11.852  0.00  0.00    +0.050 C 
ENDBRANCH   8  21
TORSDOF 3
ENDMDL
MODEL 5
REMARK VINA RESULT:      -7.8      8.308     11.139
REMARK  Name = 3OOM_507.pdb
REMARK  4 active torsions:
REMARK  status: ('A' for Active; 'I' for Inactive)
REMARK    1  A    between atoms: _1  and  _18
REMARK    2  A    between atoms: _16  and  _24
REMARK    3  A    between atoms: _18  and  _19
REMARK    4  A    between atoms: _20  and  _22
REMARK                            x       y       z     vdW  Elec       q    Type
REMARK                         _______ _______ _______ _____ _____    ______ ____
ROOT
ATOM      1  C   UNL     1       7.539  26.232  16.836  0.00  0.00    +0.093 A 
ATOM      2  N   UNL     1       6.936  26.791  15.740  0.00  0.00    -0.211 N 
ATOM      3  C   UNL     1       6.910  28.145  15.941  0.00  0.00    +0.155 A 
ATOM      4  N   UNL     1       7.476  28.407  17.114  0.00  0.00    -0.234 NA
ATOM      5  C   UNL     1       6.338  28.975  14.958  0.00  0.00    +0.051 A 
ATOM      6  C   UNL     1       5.823  28.414  13.831  0.00  0.00    +0.049 A 
ATOM      7  C   UNL     1       5.866  27.018  13.655  0.00  0.00    +0.140 A 
ATOM      8  N   UNL     1       5.336  26.454  12.498  0.00  0.00    -0.325 N 
ATOM      9  H   UNL     1       4.941  27.022  11.819  0.00  0.00    +0.148 HD
ATOM     10  N   UNL     1       6.399  26.244  14.570  0.00  0.00    -0.150 NA
ATOM     11  C   UNL     1       7.867  27.271  17.681  0.00  0.00    +0.141 A 
ENDROOT
BRANCH   1  14
ATOM     12  C   UNL     1       7.001  22.515  17.125  0.00  0.00    +0.018 A 
ATOM     13  C   UNL     1       6.757  23.872  16.902  0.00  0.00    +0.021 A 
ATOM     14  C   UNL     1       7.789  24.793  17.067  0.00  0.00    +0.003 A 
ATOM     15  C   UNL     1       9.058  24.356  17.454  0.00  0.00    +0.010 A 
ATOM     16  C   UNL     1       9.294  23.013  17.672  0.00  0.00    +0.001 A 
ATOM     17  C   UNL     1       8.278  22.092  17.511  0.00  0.00    +0.011 A 
BRANCH  12  19
ATOM     18  C   UNL     1       5.645  20.944  15.593  0.00  0.00    +0.091 C 
ATOM     19  C   UNL     1       5.919  21.532  16.953  0.00  0.00    +0.160 C 
ATOM     20  O   UNL     1       5.247  21.196  17.906  0.00  0.00    -0.292 OA
ENDBRANCH  12  19
ENDBRANCH   1  14
BRANCH   8  21
ATOM     21  C   UNL     1       5.377  25.002  12.307  0.00  0.00    +0.076 C 
ATOM     22  C   UNL     1       4.129  24.368  12.929  0.00  0.00    +0.050 C 
ATOM     23  C   UNL     1       4.140  22.863  12.656  0.00  0.00    +0.161 C 
ATOM     24  O   UNL     1       4.198  22.635  11.246  0.00  0.00    -0.380 OA
ATOM     25  C   UNL     1       5.367  23.165  10.618  0.00  0.00    +0.161 C 
ATOM     26  C   UNL     1       5.405  24.683  10.809  0.00  0.00    +0.050 C 
ENDBRANCH   8  21
TORSDOF 3
ENDMDL
MODEL 6
REMARK VINA RESULT:      -7.7      8.056     11.220
REMARK  Name = 3OOM_507.pdb
REMARK  4 active torsions:
REMARK  status: ('A' for Active; 'I' for Inactive)
REMARK    1  A    between atoms: _1  and  _18
REMARK    2  A    between atoms: _16  and  _24
REMARK    3  A    between atoms: _18  and  _19
REMARK    4  A    between atoms: _20  and  _22
REMARK                            x       y       z     vdW  Elec       q    Type
REMARK                         _______ _______ _______ _____ _____    ______ ____
ROOT
ATOM      1  C   UNL     1       7.360  27.226  16.009  0.00  0.00    +0.093 A 
ATOM      2  N   UNL     1       6.733  27.049  14.803  0.00  0.00    -0.211 N 
ATOM      3  C   UNL     1       6.283  28.278  14.398  0.00  0.00    +0.155 A 
ATOM      4  N   UNL     1       6.622  29.174  15.319  0.00  0.00    -0.234 NA
ATOM      5  C   UNL     1       5.593  28.389  13.176  0.00  0.00    +0.051 A 
ATOM      6  C   UNL     1       5.387  27.274  12.424  0.00  0.00    +0.049 A 
ATOM      7  C   UNL     1       5.862  26.026  12.869  0.00  0.00    +0.140 A 
ATOM      8  N   UNL     1       5.646  24.891  12.093  0.00  0.00    -0.325 N 
ATOM      9  H   UNL     1       5.170  24.963  11.251  0.00  0.00    +0.148 HD
ATOM     10  N   UNL     1       6.506  25.921  14.008  0.00  0.00    -0.150 NA
ATOM     11  C   UNL     1       7.275  28.570  16.306  0.00  0.00    +0.141 A 
ENDROOT
BRANCH   1  14
ATOM     12  C   UNL     1       7.834  24.262  18.284  0.00  0.00    +0.018 A 
ATOM     13  C   UNL     1       7.219  25.247  17.508  0.00  0.00    +0.021 A 
ATOM     14  C   UNL     1       8.002  26.179  16.830  0.00  0.00    +0.003 A 
ATOM     15  C   UNL     1       9.395  26.123  16.931  0.00  0.00    +0.010 A 
ATOM     16  C   UNL     1       9.997  25.147  17.699  0.00  0.00    +0.001 A 
ATOM     17  C   UNL     1       9.230  24.219  18.374  0.00  0.00    +0.011 A 
BRANCH  12  19
ATOM     18  C   UNL     1       6.006  22.443  18.254  0.00  0.00    +0.091 C 
ATOM     19  C   UNL     1       7.017  23.272  19.003  0.00  0.00    +0.160 C 
ATOM     20  O   UNL     1       7.157  23.123  20.199  0.00  0.00    -0.292 OA
ENDBRANCH  12  19
ENDBRANCH   1  14
BRANCH   8  21
ATOM     21  C   UNL     1       6.137  23.588  12.549  0.00  0.00    +0.076 C 
ATOM     22  C   UNL     1       5.014  22.842  13.275  0.00  0.00    +0.050 C 
ATOM     23  C   UNL     1       5.511  21.452  13.677  0.00  0.00    +0.161 C 
ATOM     24  O   UNL     1       5.943  20.746  12.512  0.00  0.00    -0.380 OA
ATOM     25  C   UNL     1       7.024  21.373  11.819  0.00  0.00    +0.161 C 
ATOM     26  C   UNL     1       6.587  22.760  11.341  0.00  0.00    +0.050 C 
ENDBRANCH   8  21
TORSDOF 3
ENDMDL
MODEL 7
REMARK VINA RESULT:      -7.6      4.885      9.273
REMARK  Name = 3OOM_507.pdb
REMARK  4 active torsions:
REMARK  status: ('A' for Active; 'I' for Inactive)
REMARK    1  A    between atoms: _1  and  _18
REMARK    2  A    between atoms: _16  and  _24
REMARK    3  A    between atoms: _18  and  _19
REMARK    4  A    between atoms: _20  and  _22
REMARK                            x       y       z     vdW  Elec       q    Type
REMARK                         _______ _______ _______ _____ _____    ______ ____
ROOT
ATOM      1  C   UNL     1       6.745  25.391  18.034  0.00  0.00    +0.093 A 
ATOM      2  N   UNL     1       7.757  24.535  18.382  0.00  0.00    -0.211 N 
ATOM      3  C   UNL     1       7.215  23.582  19.203  0.00  0.00    +0.155 A 
ATOM      4  N   UNL     1       5.921  23.843  19.351  0.00  0.00    -0.234 NA
ATOM      5  C   UNL     1       8.042  22.564  19.715  0.00  0.00    +0.051 A 
ATOM      6  C   UNL     1       9.361  22.550  19.385  0.00  0.00    +0.049 A 
ATOM      7  C   UNL     1       9.887  23.545  18.539  0.00  0.00    +0.140 A 
ATOM      8  N   UNL     1      11.239  23.521  18.206  0.00  0.00    -0.325 N 
ATOM      9  H   UNL     1      11.812  22.823  18.558  0.00  0.00    +0.148 HD
ATOM     10  N   UNL     1       9.117  24.493  18.060  0.00  0.00    -0.150 NA
ATOM     11  C   UNL     1       5.604  24.930  18.657  0.00  0.00    +0.141 A 
ENDROOT
BRANCH   1  14
ATOM     12  C   UNL     1       6.407  27.682  15.063  0.00  0.00    +0.018 A 
ATOM     13  C   UNL     1       6.296  26.557  15.883  0.00  0.00    +0.021 A 
ATOM     14  C   UNL     1       6.855  26.577  17.159  0.00  0.00    +0.003 A 
ATOM     15  C   UNL     1       7.521  27.720  17.610  0.00  0.00    +0.010 A 
ATOM     16  C   UNL     1       7.627  28.829  16.795  0.00  0.00    +0.001 A 
ATOM     17  C   UNL     1       7.077  28.819  15.529  0.00  0.00    +0.011 A 
BRANCH  12  19
ATOM     18  C   UNL     1       5.457  26.364  13.059  0.00  0.00    +0.091 C 
ATOM     19  C   UNL     1       5.820  27.672  13.713  0.00  0.00    +0.160 C 
ATOM     20  O   UNL     1       5.629  28.717  13.127  0.00  0.00    -0.292 OA
ENDBRANCH  12  19
ENDBRANCH   1  14
BRANCH   8  21
ATOM     21  C   UNL     1      11.795  24.552  17.326  0.00  0.00    +0.076 C 
ATOM     22  C   UNL     1      12.488  25.627  18.169  0.00  0.00    +0.050 C 
ATOM     23  C   UNL     1      13.132  26.657  17.239  0.00  0.00    +0.161 C 
ATOM     24  O   UNL     1      14.053  25.999  16.366  0.00  0.00    -0.380 OA
ATOM     25  C   UNL     1      13.452  25.016  15.520  0.00  0.00    +0.161 C 
ATOM     26  C   UNL     1      12.821  23.920  16.381  0.00  0.00    +0.050 C 
ENDBRANCH   8  21
TORSDOF 3
ENDMDL
MODEL 8
REMARK VINA RESULT:      -7.5      1.391      5.572
REMARK  Name = 3OOM_507.pdb
REMARK  4 active torsions:
REMARK  status: ('A' for Active; 'I' for Inactive)
REMARK    1  A    between atoms: _1  and  _18
REMARK    2  A    between atoms: _16  and  _24
REMARK    3  A    between atoms: _18  and  _19
REMARK    4  A    between atoms: _20  and  _22
REMARK                            x       y       z     vdW  Elec       q    Type
REMARK                         _______ _______ _______ _____ _____    ______ ____
ROOT
ATOM      1  C   UNL     1      14.550  23.506  21.223  0.00  0.00    +0.093 A 
ATOM      2  N   UNL     1      15.823  23.397  20.727  0.00  0.00    -0.211 N 
ATOM      3  C   UNL     1      16.673  23.369  21.802  0.00  0.00    +0.155 A 
ATOM      4  N   UNL     1      15.949  23.457  22.912  0.00  0.00    -0.234 NA
ATOM      5  C   UNL     1      18.059  23.260  21.580  0.00  0.00    +0.051 A 
ATOM      6  C   UNL     1      18.524  23.187  20.303  0.00  0.00    +0.049 A 
ATOM      7  C   UNL     1      17.624  23.218  19.221  0.00  0.00    +0.140 A 
ATOM      8  N   UNL     1      18.111  23.142  17.919  0.00  0.00    -0.325 N 
ATOM      9  H   UNL     1      19.065  23.068  17.762  0.00  0.00    +0.148 HD
ATOM     10  N   UNL     1      16.332  23.319  19.427  0.00  0.00    -0.150 NA
ATOM     11  C   UNL     1      14.660  23.541  22.596  0.00  0.00    +0.141 A 
ENDROOT
BRANCH   1  14
ATOM     12  C   UNL     1      11.858  24.740  18.895  0.00  0.00    +0.018 A 
ATOM     13  C   UNL     1      13.042  24.683  19.633  0.00  0.00    +0.021 A 
ATOM     14  C   UNL     1      13.301  23.574  20.436  0.00  0.00    +0.003 A 
ATOM     15  C   UNL     1      12.377  22.527  20.496  0.00  0.00    +0.010 A 
ATOM     16  C   UNL     1      11.208  22.589  19.763  0.00  0.00    +0.001 A 
ATOM     17  C   UNL     1      10.943  23.684  18.965  0.00  0.00    +0.011 A 
BRANCH  12  19
ATOM     18  C   UNL     1      12.606  26.994  17.887  0.00  0.00    +0.091 C 
ATOM     19  C   UNL     1      11.575  25.907  18.043  0.00  0.00    +0.160 C 
ATOM     20  O   UNL     1      10.510  25.993  17.467  0.00  0.00    -0.292 OA
ENDBRANCH  12  19
ENDBRANCH   1  14
BRANCH   8  21
ATOM     21  C   UNL     1      17.181  23.174  16.787  0.00  0.00    +0.076 C 
ATOM     22  C   UNL     1      17.344  24.493  16.027  0.00  0.00    +0.050 C 
ATOM     23  C   UNL     1      16.427  24.485  14.803  0.00  0.00    +0.161 C 
ATOM     24  O   UNL     1      16.744  23.361  13.978  0.00  0.00    -0.380 OA
ATOM     25  C   UNL     1      16.565  22.098  14.622  0.00  0.00    +0.161 C 
ATOM     26  C   UNL     1      17.488  22.010  15.840  0.00  0.00    +0.050 C 
ENDBRANCH   8  21
TORSDOF 3
ENDMDL
MODEL 9
REMARK VINA RESULT:      -7.4      2.809      4.961
REMARK  Name = 3OOM_507.pdb
REMARK  4 active torsions:
REMARK  status: ('A' for Active; 'I' for Inactive)
REMARK    1  A    between atoms: _1  and  _18
REMARK    2  A    between atoms: _16  and  _24
REMARK    3  A    between atoms: _18  and  _19
REMARK    4  A    between atoms: _20  and  _22
REMARK                            x       y       z     vdW  Elec       q    Type
REMARK                         _______ _______ _______ _____ _____    ______ ____
ROOT
ATOM      1  C   UNL     1      13.885  22.389  18.782  0.00  0.00    +0.093 A 
ATOM      2  N   UNL     1      12.911  23.294  18.448  0.00  0.00    -0.211 N 
ATOM      3  C   UNL     1      11.823  23.024  19.235  0.00  0.00    +0.155 A 
ATOM      4  N   UNL     1      12.118  21.995  20.021  0.00  0.00    -0.234 NA
ATOM      5  C   UNL     1      10.664  23.812  19.099  0.00  0.00    +0.051 A 
ATOM      6  C   UNL     1      10.650  24.823  18.189  0.00  0.00    +0.049 A 
ATOM      7  C   UNL     1      11.785  25.074  17.395  0.00  0.00    +0.140 A 
ATOM      8  N   UNL     1      11.760  26.111  16.467  0.00  0.00    -0.325 N 
ATOM      9  H   UNL     1      10.963  26.655  16.370  0.00  0.00    +0.148 HD
ATOM     10  N   UNL     1      12.866  24.341  17.522  0.00  0.00    -0.150 NA
ATOM     11  C   UNL     1      13.358  21.587  19.772  0.00  0.00    +0.141 A 
ENDROOT
BRANCH   1  14
ATOM     12  C   UNL     1      17.631  22.506  18.401  0.00  0.00    +0.018 A 
ATOM     13  C   UNL     1      16.356  22.598  18.965  0.00  0.00    +0.021 A 
ATOM     14  C   UNL     1      15.237  22.292  18.194  0.00  0.00    +0.003 A 
ATOM     15  C   UNL     1      15.396  21.896  16.863  0.00  0.00    +0.010 A 
ATOM     16  C   UNL     1      16.658  21.806  16.311  0.00  0.00    +0.001 A 
ATOM     17  C   UNL     1      17.773  22.107  17.067  0.00  0.00    +0.011 A 
BRANCH  12  19
ATOM     18  C   UNL     1      19.489  21.749  20.021  0.00  0.00    +0.091 C 
ATOM     19  C   UNL     1      18.820  22.825  19.207  0.00  0.00    +0.160 C 
ATOM     20  O   UNL     1      19.261  23.956  19.216  0.00  0.00    -0.292 OA
ENDBRANCH  12  19
ENDBRANCH   1  14
BRANCH   8  21
ATOM     21  C   UNL     1      12.937  26.379  15.637  0.00  0.00    +0.076 C 
ATOM     22  C   UNL     1      12.721  25.798  14.237  0.00  0.00    +0.050 C 
ATOM     23  C   UNL     1      13.920  26.151  13.355  0.00  0.00    +0.161 C 
ATOM     24  O   UNL     1      14.080  27.571  13.316  0.00  0.00    -0.380 OA
ATOM     25  C   UNL     1      14.333  28.164  14.592  0.00  0.00    +0.161 C 
ATOM     26  C   UNL     1      13.149  27.892  15.524  0.00  0.00    +0.050 C 
ENDBRANCH   8  21
TORSDOF 3
ENDMDL
