MODEL 1
REMARK VINA RESULT:      -6.7      0.000      0.000
REMARK  Name = 5S88_LU8.pdb
REMARK  6 active torsions:
REMARK  status: ('A' for Active; 'I' for Inactive)
REMARK    1  A    between atoms: _2  and  _3
REMARK    2  A    between atoms: _5  and  _6
REMARK    3  A    between atoms: _10  and  _11
REMARK    4  A    between atoms: _14  and  _15
REMARK    5  A    between atoms: _27  and  _28
REMARK    6  A    between atoms: _30  and  _31
REMARK                            x       y       z     vdW  Elec       q    Type
REMARK                         _______ _______ _______ _____ _____    ______ ____
ROOT
ATOM      1  C   UNL     1       9.221  14.086  25.630  0.00  0.00    +0.015 A 
ATOM      2  C   UNL     1       8.875  14.149  26.972  0.00  0.00    -0.019 A 
ATOM      3  C   UNL     1       8.451  15.463  27.557  0.00  0.00    +0.031 C 
ATOM      4  C   UNL     1       8.871  12.988  27.799  0.00  0.00    +0.015 A 
ATOM      5  C   UNL     1       9.171  11.829  27.139  0.00  0.00    +0.099 A 
ATOM      6  N   UNL     1       9.476  11.753  25.876  0.00  0.00    -0.242 NA
ATOM      7  C   UNL     1       9.516  12.846  25.105  0.00  0.00    +0.099 A 
ENDROOT
BRANCH   1  12
ATOM      8  C   UNL     1       8.183  16.872  23.281  0.00  0.00    +0.175 A 
ATOM      9  C   UNL     1       9.292  17.691  23.327  0.00  0.00    +0.206 A 
ATOM     10  C   UNL     1      10.391  17.304  24.062  0.00  0.00    +0.175 A 
ATOM     11  C   UNL     1      10.356  16.128  24.780  0.00  0.00    +0.040 A 
ATOM     12  C   UNL     1       9.223  15.301  24.771  0.00  0.00    +0.007 A 
ATOM     13  C   UNL     1       8.139  15.677  23.979  0.00  0.00    +0.040 A 
BRANCH   8  15
ATOM     14  C   UNL     1       6.875  16.502  21.323  0.00  0.00    +0.253 C 
ATOM     15  O   UNL     1       7.179  17.315  22.481  0.00  0.00    -0.468 OA
ENDBRANCH   8  15
BRANCH   9  16
ATOM     16  O   UNL     1       9.309  18.890  22.656  0.00  0.00    -0.465 OA
ATOM     17  C   UNL     1       9.827  18.911  21.369  0.00  0.00    +0.253 C 
ENDBRANCH   9  16
BRANCH  10  18
ATOM     18  O   UNL     1      11.469  18.173  24.054  0.00  0.00    -0.468 OA
ATOM     19  C   UNL     1      12.474  18.121  25.073  0.00  0.00    +0.253 C 
ENDBRANCH  10  18
ENDBRANCH   1  12
BRANCH   4  20
ATOM     20  C   UNL     1       8.532  12.968  29.229  0.00  0.00    +0.001 A 
ATOM     21  C   UNL     1       9.572  12.929  30.227  0.00  0.00    -0.000 A 
ATOM     22  C   UNL     1       9.302  12.893  31.572  0.00  0.00    -0.004 A 
ATOM     23  C   UNL     1       7.973  12.846  32.025  0.00  0.00    -0.022 A 
ATOM     24  C   UNL     1       6.960  12.901  31.043  0.00  0.00    -0.004 A 
ATOM     25  C   UNL     1       7.212  12.910  29.719  0.00  0.00    -0.000 A 
BRANCH  23  26
ATOM     26  C   UNL     1       7.770  12.891  33.497  0.00  0.00    +0.025 C 
ATOM     27  C   UNL     1       6.821  11.864  34.039  0.00  0.00    +0.022 C 
ATOM     28  C   UNL     1       6.894  11.974  35.560  0.00  0.00    +0.072 C 
ATOM     29  N   UNL     1       6.307  13.260  36.037  0.00  0.00    -0.271 NA
ATOM     30  C   UNL     1       4.848  13.318  35.773  0.00  0.00    +0.090 C 
ATOM     31  C   UNL     1       7.040  14.420  35.472  0.00  0.00    +0.072 C 
ATOM     32  C   UNL     1       7.385  14.301  33.974  0.00  0.00    +0.022 C 
ENDBRANCH  23  26
ENDBRANCH   4  20
TORSDOF 6
ENDMDL
MODEL 2
REMARK VINA RESULT:      -6.6      0.657      2.485
REMARK  Name = 5S88_LU8.pdb
REMARK  6 active torsions:
REMARK  status: ('A' for Active; 'I' for Inactive)
REMARK    1  A    between atoms: _2  and  _3
REMARK    2  A    between atoms: _5  and  _6
REMARK    3  A    between atoms: _10  and  _11
REMARK    4  A    between atoms: _14  and  _15
REMARK    5  A    between atoms: _27  and  _28
REMARK    6  A    between atoms: _30  and  _31
REMARK                            x       y       z     vdW  Elec       q    Type
REMARK                         _______ _______ _______ _____ _____    ______ ____
ROOT
ATOM      1  C   UNL     1       9.118  14.404  25.471  0.00  0.00    +0.015 A 
ATOM      2  C   UNL     1       8.813  14.359  26.823  0.00  0.00    -0.019 A 
ATOM      3  C   UNL     1       8.235  15.575  27.483  0.00  0.00    +0.031 C 
ATOM      4  C   UNL     1       8.996  13.173  27.593  0.00  0.00    +0.015 A 
ATOM      5  C   UNL     1       9.428  12.097  26.869  0.00  0.00    +0.099 A 
ATOM      6  N   UNL     1       9.696  12.119  25.596  0.00  0.00    -0.242 NA
ATOM      7  C   UNL     1       9.561  13.241  24.878  0.00  0.00    +0.099 A 
ENDROOT
BRANCH   1  12
ATOM      8  C   UNL     1       9.642  17.766  23.803  0.00  0.00    +0.175 A 
ATOM      9  C   UNL     1       8.520  17.849  23.005  0.00  0.00    +0.206 A 
ATOM     10  C   UNL     1       7.571  16.852  23.063  0.00  0.00    +0.175 A 
ATOM     11  C   UNL     1       7.772  15.760  23.881  0.00  0.00    +0.040 A 
ATOM     12  C   UNL     1       8.925  15.644  24.672  0.00  0.00    +0.007 A 
ATOM     13  C   UNL     1       9.850  16.687  24.645  0.00  0.00    +0.040 A 
BRANCH   8  15
ATOM     14  C   UNL     1      11.664  18.782  24.553  0.00  0.00    +0.253 C 
ATOM     15  O   UNL     1      10.484  18.828  23.716  0.00  0.00    -0.468 OA
ENDBRANCH   8  15
BRANCH   9  16
ATOM     16  O   UNL     1       8.342  18.909  22.149  0.00  0.00    -0.465 OA
ATOM     17  C   UNL     1       8.841  18.798  20.859  0.00  0.00    +0.253 C 
ENDBRANCH   9  16
BRANCH  10  18
ATOM     18  O   UNL     1       6.469  17.008  22.240  0.00  0.00    -0.468 OA
ATOM     19  C   UNL     1       6.118  16.015  21.270  0.00  0.00    +0.253 C 
ENDBRANCH  10  18
ENDBRANCH   1  12
BRANCH   4  20
ATOM     20  C   UNL     1       8.712  13.043  29.029  0.00  0.00    +0.001 A 
ATOM     21  C   UNL     1       7.352  12.997  29.506  0.00  0.00    -0.000 A 
ATOM     22  C   UNL     1       7.041  12.893  30.838  0.00  0.00    -0.004 A 
ATOM     23  C   UNL     1       8.062  12.873  31.803  0.00  0.00    -0.022 A 
ATOM     24  C   UNL     1       9.391  12.903  31.329  0.00  0.00    -0.004 A 
ATOM     25  C   UNL     1       9.710  13.031  30.025  0.00  0.00    -0.000 A 
BRANCH  23  26
ATOM     26  C   UNL     1       7.640  12.676  33.214  0.00  0.00    +0.025 C 
ATOM     27  C   UNL     1       6.330  11.967  33.393  0.00  0.00    +0.022 C 
ATOM     28  C   UNL     1       6.177  11.721  34.891  0.00  0.00    +0.072 C 
ATOM     29  N   UNL     1       5.971  13.000  35.630  0.00  0.00    -0.271 NA
ATOM     30  C   UNL     1       4.677  13.631  35.267  0.00  0.00    +0.090 C 
ATOM     31  C   UNL     1       7.126  13.912  35.446  0.00  0.00    +0.072 C 
ATOM     32  C   UNL     1       7.662  13.996  34.003  0.00  0.00    +0.022 C 
ENDBRANCH  23  26
ENDBRANCH   4  20
TORSDOF 6
ENDMDL
MODEL 3
REMARK VINA RESULT:      -6.4      6.338      7.847
REMARK  Name = 5S88_LU8.pdb
REMARK  6 active torsions:
REMARK  status: ('A' for Active; 'I' for Inactive)
REMARK    1  A    between atoms: _2  and  _3
REMARK    2  A    between atoms: _5  and  _6
REMARK    3  A    between atoms: _10  and  _11
REMARK    4  A    between atoms: _14  and  _15
REMARK    5  A    between atoms: _27  and  _28
REMARK    6  A    between atoms: _30  and  _31
REMARK                            x       y       z     vdW  Elec       q    Type
REMARK                         _______ _______ _______ _____ _____    ______ ____
ROOT
ATOM      1  C   UNL     1      11.994  15.773  27.718  0.00  0.00    +0.015 A 
ATOM      2  C   UNL     1      12.754  15.759  28.878  0.00  0.00    -0.019 A 
ATOM      3  C   UNL     1      12.658  14.581  29.801  0.00  0.00    +0.031 C 
ATOM      4  C   UNL     1      13.656  16.817  29.196  0.00  0.00    +0.015 A 
ATOM      5  C   UNL     1      13.742  17.786  28.235  0.00  0.00    +0.099 A 
ATOM      6  N   UNL     1      13.052  17.800  27.132  0.00  0.00    -0.242 NA
ATOM      7  C   UNL     1      12.177  16.827  26.849  0.00  0.00    +0.099 A 
ENDROOT
BRANCH   1  12
ATOM      8  C   UNL     1       8.891  13.624  27.388  0.00  0.00    +0.175 A 
ATOM      9  C   UNL     1       9.351  12.608  26.575  0.00  0.00    +0.206 A 
ATOM     10  C   UNL     1      10.676  12.590  26.197  0.00  0.00    +0.175 A 
ATOM     11  C   UNL     1      11.517  13.608  26.594  0.00  0.00    +0.040 A 
ATOM     12  C   UNL     1      11.055  14.666  27.392  0.00  0.00    +0.007 A 
ATOM     13  C   UNL     1       9.727  14.643  27.813  0.00  0.00    +0.040 A 
BRANCH   8  15
ATOM     14  C   UNL     1       7.331  13.298  29.160  0.00  0.00    +0.253 C 
ATOM     15  O   UNL     1       7.587  13.517  27.753  0.00  0.00    -0.468 OA
ENDBRANCH   8  15
BRANCH   9  16
ATOM     16  O   UNL     1       8.503  11.622  26.134  0.00  0.00    -0.465 OA
ATOM     17  C   UNL     1       7.815  11.833  24.948  0.00  0.00    +0.253 C 
ENDBRANCH   9  16
BRANCH  10  18
ATOM     18  O   UNL     1      11.066  11.536  25.389  0.00  0.00    -0.468 OA
ATOM     19  C   UNL     1      11.524  11.755  24.050  0.00  0.00    +0.253 C 
ENDBRANCH  10  18
ENDBRANCH   1  12
BRANCH   4  20
ATOM     20  C   UNL     1      14.485  16.888  30.407  0.00  0.00    +0.001 A 
ATOM     21  C   UNL     1      14.077  17.700  31.526  0.00  0.00    -0.000 A 
ATOM     22  C   UNL     1      14.828  17.809  32.670  0.00  0.00    -0.004 A 
ATOM     23  C   UNL     1      16.067  17.154  32.768  0.00  0.00    -0.022 A 
ATOM     24  C   UNL     1      16.453  16.349  31.674  0.00  0.00    -0.004 A 
ATOM     25  C   UNL     1      15.737  16.253  30.536  0.00  0.00    -0.000 A 
BRANCH  23  26
ATOM     26  C   UNL     1      16.774  17.260  34.070  0.00  0.00    +0.025 C 
ATOM     27  C   UNL     1      17.447  16.002  34.533  0.00  0.00    +0.022 C 
ATOM     28  C   UNL     1      18.244  16.376  35.780  0.00  0.00    +0.072 C 
ATOM     29  N   UNL     1      17.341  16.713  36.918  0.00  0.00    -0.271 NA
ATOM     30  C   UNL     1      16.569  15.526  37.364  0.00  0.00    +0.090 C 
ATOM     31  C   UNL     1      16.473  17.869  36.583  0.00  0.00    +0.072 C 
ATOM     32  C   UNL     1      15.861  17.831  35.167  0.00  0.00    +0.022 C 
ENDBRANCH  23  26
ENDBRANCH   4  20
TORSDOF 6
ENDMDL
MODEL 4
REMARK VINA RESULT:      -6.2      5.508     10.087
REMARK  Name = 5S88_LU8.pdb
REMARK  6 active torsions:
REMARK  status: ('A' for Active; 'I' for Inactive)
REMARK    1  A    between atoms: _2  and  _3
REMARK    2  A    between atoms: _5  and  _6
REMARK    3  A    between atoms: _10  and  _11
REMARK    4  A    between atoms: _14  and  _15
REMARK    5  A    between atoms: _27  and  _28
REMARK    6  A    between atoms: _30  and  _31
REMARK                            x       y       z     vdW  Elec       q    Type
REMARK                         _______ _______ _______ _____ _____    ______ ____
ROOT
ATOM      1  C   UNL     1      13.126  14.375  29.799  0.00  0.00    +0.015 A 
ATOM      2  C   UNL     1      12.530  15.057  28.750  0.00  0.00    -0.019 A 
ATOM      3  C   UNL     1      13.267  16.192  28.103  0.00  0.00    +0.031 C 
ATOM      4  C   UNL     1      11.252  14.682  28.242  0.00  0.00    +0.015 A 
ATOM      5  C   UNL     1      10.718  13.571  28.835  0.00  0.00    +0.099 A 
ATOM      6  N   UNL     1      11.277  12.907  29.805  0.00  0.00    -0.242 NA
ATOM      7  C   UNL     1      12.460  13.280  30.308  0.00  0.00    +0.099 A 
ENDROOT
BRANCH   1  12
ATOM      8  C   UNL     1      15.953  16.256  31.482  0.00  0.00    +0.175 A 
ATOM      9  C   UNL     1      16.972  15.328  31.414  0.00  0.00    +0.206 A 
ATOM     10  C   UNL     1      16.758  14.132  30.766  0.00  0.00    +0.175 A 
ATOM     11  C   UNL     1      15.517  13.852  30.233  0.00  0.00    +0.040 A 
ATOM     12  C   UNL     1      14.461  14.771  30.325  0.00  0.00    +0.007 A 
ATOM     13  C   UNL     1      14.707  16.000  30.934  0.00  0.00    +0.040 A 
BRANCH   8  15
ATOM     14  C   UNL     1      15.188  18.206  32.620  0.00  0.00    +0.253 C 
ATOM     15  O   UNL     1      16.284  17.426  32.087  0.00  0.00    -0.468 OA
ENDBRANCH   8  15
BRANCH   9  16
ATOM     16  O   UNL     1      18.193  15.582  31.991  0.00  0.00    -0.465 OA
ATOM     17  C   UNL     1      18.398  15.162  33.297  0.00  0.00    +0.253 C 
ENDBRANCH   9  16
BRANCH  10  18
ATOM     18  O   UNL     1      17.829  13.255  30.732  0.00  0.00    -0.468 OA
ATOM     19  C   UNL     1      17.808  12.088  29.903  0.00  0.00    +0.253 C 
ENDBRANCH  10  18
ENDBRANCH   1  12
BRANCH   4  20
ATOM     20  C   UNL     1      10.543  15.357  27.146  0.00  0.00    +0.001 A 
ATOM     21  C   UNL     1      10.738  14.938  25.780  0.00  0.00    -0.000 A 
ATOM     22  C   UNL     1      10.110  15.550  24.725  0.00  0.00    -0.004 A 
ATOM     23  C   UNL     1       9.274  16.658  24.945  0.00  0.00    -0.022 A 
ATOM     24  C   UNL     1       9.076  17.053  26.285  0.00  0.00    -0.004 A 
ATOM     25  C   UNL     1       9.707  16.477  27.329  0.00  0.00    -0.000 A 
BRANCH  23  26
ATOM     26  C   UNL     1       8.572  17.207  23.756  0.00  0.00    +0.025 C 
ATOM     27  C   UNL     1       7.610  16.266  23.094  0.00  0.00    +0.022 C 
ATOM     28  C   UNL     1       6.885  17.077  22.024  0.00  0.00    +0.072 C 
ATOM     29  N   UNL     1       7.807  17.452  20.913  0.00  0.00    -0.271 NA
ATOM     30  C   UNL     1       8.266  16.254  20.164  0.00  0.00    +0.090 C 
ATOM     31  C   UNL     1       8.931  18.281  21.413  0.00  0.00    +0.072 C 
ATOM     32  C   UNL     1       9.560  17.793  22.734  0.00  0.00    +0.022 C 
ENDBRANCH  23  26
ENDBRANCH   4  20
TORSDOF 6
ENDMDL
MODEL 5
REMARK VINA RESULT:      -6.2      1.483      2.876
REMARK  Name = 5S88_LU8.pdb
REMARK  6 active torsions:
REMARK  status: ('A' for Active; 'I' for Inactive)
REMARK    1  A    between atoms: _2  and  _3
REMARK    2  A    between atoms: _5  and  _6
REMARK    3  A    between atoms: _10  and  _11
REMARK    4  A    between atoms: _14  and  _15
REMARK    5  A    between atoms: _27  and  _28
REMARK    6  A    between atoms: _30  and  _31
REMARK                            x       y       z     vdW  Elec       q    Type
REMARK                         _______ _______ _______ _____ _____    ______ ____
ROOT
ATOM      1  C   UNL     1       9.333  12.785  26.423  0.00  0.00    +0.015 A 
ATOM      2  C   UNL     1       8.837  13.179  27.656  0.00  0.00    -0.019 A 
ATOM      3  C   UNL     1       8.351  14.587  27.832  0.00  0.00    +0.031 C 
ATOM      4  C   UNL     1       8.737  12.269  28.749  0.00  0.00    +0.015 A 
ATOM      5  C   UNL     1       9.108  10.988  28.447  0.00  0.00    +0.099 A 
ATOM      6  N   UNL     1       9.554  10.600  27.288  0.00  0.00    -0.242 NA
ATOM      7  C   UNL     1       9.684  11.460  26.271  0.00  0.00    +0.099 A 
ENDROOT
BRANCH   1  12
ATOM      8  C   UNL     1      10.545  15.451  24.018  0.00  0.00    +0.175 A 
ATOM      9  C   UNL     1       9.597  15.363  23.019  0.00  0.00    +0.206 A 
ATOM     10  C   UNL     1       8.540  14.492  23.162  0.00  0.00    +0.175 A 
ATOM     11  C   UNL     1       8.461  13.685  24.277  0.00  0.00    +0.040 A 
ATOM     12  C   UNL     1       9.435  13.738  25.285  0.00  0.00    +0.007 A 
ATOM     13  C   UNL     1      10.470  14.663  25.154  0.00  0.00    +0.040 A 
BRANCH   8  15
ATOM     14  C   UNL     1      11.752  17.311  24.891  0.00  0.00    +0.253 C 
ATOM     15  O   UNL     1      11.511  16.381  23.808  0.00  0.00    -0.468 OA
ENDBRANCH   8  15
BRANCH   9  16
ATOM     16  O   UNL     1       9.703  16.127  21.882  0.00  0.00    -0.465 OA
ATOM     17  C   UNL     1       9.099  17.376  21.876  0.00  0.00    +0.253 C 
ENDBRANCH   9  16
BRANCH  10  18
ATOM     18  O   UNL     1       7.625  14.465  22.122  0.00  0.00    -0.468 OA
ATOM     19  C   UNL     1       6.898  13.274  21.802  0.00  0.00    +0.253 C 
ENDBRANCH  10  18
ENDBRANCH   1  12
BRANCH   4  20
ATOM     20  C   UNL     1       8.237  12.607  30.090  0.00  0.00    +0.001 A 
ATOM     21  C   UNL     1       9.156  12.837  31.176  0.00  0.00    -0.000 A 
ATOM     22  C   UNL     1       8.734  13.139  32.447  0.00  0.00    -0.004 A 
ATOM     23  C   UNL     1       7.362  13.189  32.743  0.00  0.00    -0.022 A 
ATOM     24  C   UNL     1       6.468  12.977  31.671  0.00  0.00    -0.004 A 
ATOM     25  C   UNL     1       6.869  12.655  30.424  0.00  0.00    -0.000 A 
BRANCH  23  26
ATOM     26  C   UNL     1       6.994  13.601  34.122  0.00  0.00    +0.025 C 
ATOM     27  C   UNL     1       8.029  13.316  35.169  0.00  0.00    +0.022 C 
ATOM     28  C   UNL     1       7.529  13.966  36.456  0.00  0.00    +0.072 C 
ATOM     29  N   UNL     1       6.319  13.268  36.979  0.00  0.00    -0.271 NA
ATOM     30  C   UNL     1       6.640  11.885  37.413  0.00  0.00    +0.090 C 
ATOM     31  C   UNL     1       5.209  13.318  35.996  0.00  0.00    +0.072 C 
ATOM     32  C   UNL     1       5.624  13.039  34.536  0.00  0.00    +0.022 C 
ENDBRANCH  23  26
ENDBRANCH   4  20
TORSDOF 6
ENDMDL
MODEL 6
REMARK VINA RESULT:      -6.1      4.511     10.262
REMARK  Name = 5S88_LU8.pdb
REMARK  6 active torsions:
REMARK  status: ('A' for Active; 'I' for Inactive)
REMARK    1  A    between atoms: _2  and  _3
REMARK    2  A    between atoms: _5  and  _6
REMARK    3  A    between atoms: _10  and  _11
REMARK    4  A    between atoms: _14  and  _15
REMARK    5  A    between atoms: _27  and  _28
REMARK    6  A    between atoms: _30  and  _31
REMARK                            x       y       z     vdW  Elec       q    Type
REMARK                         _______ _______ _______ _____ _____    ______ ____
ROOT
ATOM      1  C   UNL     1       9.715  13.266  29.528  0.00  0.00    +0.015 A 
ATOM      2  C   UNL     1       9.021  13.770  28.439  0.00  0.00    -0.019 A 
ATOM      3  C   UNL     1       7.539  13.561  28.356  0.00  0.00    +0.031 C 
ATOM      4  C   UNL     1       9.674  14.519  27.417  0.00  0.00    +0.015 A 
ATOM      5  C   UNL     1      11.004  14.739  27.646  0.00  0.00    +0.099 A 
ATOM      6  N   UNL     1      11.663  14.291  28.675  0.00  0.00    -0.242 NA
ATOM      7  C   UNL     1      11.060  13.556  29.618  0.00  0.00    +0.099 A 
ENDROOT
BRANCH   1  12
ATOM      8  C   UNL     1       7.652  12.284  32.552  0.00  0.00    +0.175 A 
ATOM      9  C   UNL     1       7.643  10.909  32.437  0.00  0.00    +0.206 A 
ATOM     10  C   UNL     1       8.359  10.309  31.425  0.00  0.00    +0.175 A 
ATOM     11  C   UNL     1       9.038  11.085  30.510  0.00  0.00    +0.040 A 
ATOM     12  C   UNL     1       9.028  12.485  30.593  0.00  0.00    +0.007 A 
ATOM     13  C   UNL     1       8.346  13.078  31.654  0.00  0.00    +0.040 A 
BRANCH   8  15
ATOM     14  C   UNL     1       5.838  13.628  33.317  0.00  0.00    +0.253 C 
ATOM     15  O   UNL     1       6.966  12.773  33.617  0.00  0.00    -0.468 OA
ENDBRANCH   8  15
BRANCH   9  16
ATOM     16  O   UNL     1       6.923  10.135  33.316  0.00  0.00    -0.465 OA
ATOM     17  C   UNL     1       5.609   9.830  32.992  0.00  0.00    +0.253 C 
ENDBRANCH   9  16
BRANCH  10  18
ATOM     18  O   UNL     1       8.309   8.925  31.379  0.00  0.00    -0.468 OA
ATOM     19  C   UNL     1       9.486   8.132  31.570  0.00  0.00    +0.253 C 
ENDBRANCH  10  18
ENDBRANCH   1  12
BRANCH   4  20
ATOM     20  C   UNL     1       9.020  15.076  26.224  0.00  0.00    +0.001 A 
ATOM     21  C   UNL     1       8.893  14.288  25.024  0.00  0.00    -0.000 A 
ATOM     22  C   UNL     1       8.304  14.772  23.883  0.00  0.00    -0.004 A 
ATOM     23  C   UNL     1       7.836  16.097  23.836  0.00  0.00    -0.022 A 
ATOM     24  C   UNL     1       7.950  16.857  25.020  0.00  0.00    -0.004 A 
ATOM     25  C   UNL     1       8.549  16.402  26.139  0.00  0.00    -0.000 A 
BRANCH  23  26
ATOM     26  C   UNL     1       7.140  16.512  22.591  0.00  0.00    +0.025 C 
ATOM     27  C   UNL     1       6.018  15.615  22.160  0.00  0.00    +0.022 C 
ATOM     28  C   UNL     1       5.343  16.310  20.981  0.00  0.00    +0.072 C 
ATOM     29  N   UNL     1       6.234  16.333  19.785  0.00  0.00    -0.271 NA
ATOM     30  C   UNL     1       6.475  14.963  19.265  0.00  0.00    +0.090 C 
ATOM     31  C   UNL     1       7.490  17.067  20.072  0.00  0.00    +0.072 C 
ATOM     32  C   UNL     1       8.131  16.747  21.438  0.00  0.00    +0.022 C 
ENDBRANCH  23  26
ENDBRANCH   4  20
TORSDOF 6
ENDMDL
MODEL 7
REMARK VINA RESULT:      -6.1      4.464     10.357
REMARK  Name = 5S88_LU8.pdb
REMARK  6 active torsions:
REMARK  status: ('A' for Active; 'I' for Inactive)
REMARK    1  A    between atoms: _2  and  _3
REMARK    2  A    between atoms: _5  and  _6
REMARK    3  A    between atoms: _10  and  _11
REMARK    4  A    between atoms: _14  and  _15
REMARK    5  A    between atoms: _27  and  _28
REMARK    6  A    between atoms: _30  and  _31
REMARK                            x       y       z     vdW  Elec       q    Type
REMARK                         _______ _______ _______ _____ _____    ______ ____
ROOT
ATOM      1  C   UNL     1       9.591  13.217  29.447  0.00  0.00    +0.015 A 
ATOM      2  C   UNL     1       8.939  13.730  28.336  0.00  0.00    -0.019 A 
ATOM      3  C   UNL     1       7.467  13.492  28.177  0.00  0.00    +0.031 C 
ATOM      4  C   UNL     1       9.624  14.515  27.362  0.00  0.00    +0.015 A 
ATOM      5  C   UNL     1      10.936  14.758  27.661  0.00  0.00    +0.099 A 
ATOM      6  N   UNL     1      11.554  14.302  28.711  0.00  0.00    -0.242 NA
ATOM      7  C   UNL     1      10.923  13.534  29.609  0.00  0.00    +0.099 A 
ENDROOT
BRANCH   1  12
ATOM      8  C   UNL     1       8.242  10.317  31.478  0.00  0.00    +0.175 A 
ATOM      9  C   UNL     1       7.617  10.980  32.514  0.00  0.00    +0.206 A 
ATOM     10  C   UNL     1       7.578  12.357  32.512  0.00  0.00    +0.175 A 
ATOM     11  C   UNL     1       8.202  13.060  31.503  0.00  0.00    +0.040 A 
ATOM     12  C   UNL     1       8.871  12.400  30.461  0.00  0.00    +0.007 A 
ATOM     13  C   UNL     1       8.855  11.006  30.446  0.00  0.00    +0.040 A 
BRANCH   8  15
ATOM     14  C   UNL     1       9.414   8.267  31.802  0.00  0.00    +0.253 C 
ATOM     15  O   UNL     1       8.171   8.962  31.544  0.00  0.00    -0.468 OA
ENDBRANCH   8  15
BRANCH   9  16
ATOM     16  O   UNL     1       7.041  10.284  33.550  0.00  0.00    -0.465 OA
ATOM     17  C   UNL     1       5.700   9.945  33.443  0.00  0.00    +0.253 C 
ENDBRANCH   9  16
BRANCH  10  18
ATOM     18  O   UNL     1       6.927  12.952  33.579  0.00  0.00    -0.468 OA
ATOM     19  C   UNL     1       5.827  13.846  33.375  0.00  0.00    +0.253 C 
ENDBRANCH  10  18
ENDBRANCH   1  12
BRANCH   4  20
ATOM     20  C   UNL     1       9.015  15.083  26.152  0.00  0.00    +0.001 A 
ATOM     21  C   UNL     1       8.946  14.312  24.936  0.00  0.00    -0.000 A 
ATOM     22  C   UNL     1       8.401  14.808  23.778  0.00  0.00    -0.004 A 
ATOM     23  C   UNL     1       7.924  16.129  23.730  0.00  0.00    -0.022 A 
ATOM     24  C   UNL     1       7.981  16.873  24.928  0.00  0.00    -0.004 A 
ATOM     25  C   UNL     1       8.536  16.406  26.065  0.00  0.00    -0.000 A 
BRANCH  23  26
ATOM     26  C   UNL     1       7.277  16.557  22.462  0.00  0.00    +0.025 C 
ATOM     27  C   UNL     1       6.319  15.565  21.871  0.00  0.00    +0.022 C 
ATOM     28  C   UNL     1       5.651  16.266  20.692  0.00  0.00    +0.072 C 
ATOM     29  N   UNL     1       6.621  16.500  19.583  0.00  0.00    -0.271 NA
ATOM     30  C   UNL     1       7.079  15.219  18.988  0.00  0.00    +0.090 C 
ATOM     31  C   UNL     1       7.744  17.359  20.031  0.00  0.00    +0.072 C 
ATOM     32  C   UNL     1       8.314  17.008  21.420  0.00  0.00    +0.022 C 
ENDBRANCH  23  26
ENDBRANCH   4  20
TORSDOF 6
ENDMDL
MODEL 8
REMARK VINA RESULT:      -5.9      1.439      2.726
REMARK  Name = 5S88_LU8.pdb
REMARK  6 active torsions:
REMARK  status: ('A' for Active; 'I' for Inactive)
REMARK    1  A    between atoms: _2  and  _3
REMARK    2  A    between atoms: _5  and  _6
REMARK    3  A    between atoms: _10  and  _11
REMARK    4  A    between atoms: _14  and  _15
REMARK    5  A    between atoms: _27  and  _28
REMARK    6  A    between atoms: _30  and  _31
REMARK                            x       y       z     vdW  Elec       q    Type
REMARK                         _______ _______ _______ _____ _____    ______ ____
ROOT
ATOM      1  C   UNL     1       8.874  13.310  24.746  0.00  0.00    +0.015 A 
ATOM      2  C   UNL     1       8.695  13.563  26.098  0.00  0.00    -0.019 A 
ATOM      3  C   UNL     1       8.282  14.936  26.536  0.00  0.00    +0.031 C 
ATOM      4  C   UNL     1       8.852  12.540  27.079  0.00  0.00    +0.015 A 
ATOM      5  C   UNL     1       9.125  11.304  26.560  0.00  0.00    +0.099 A 
ATOM      6  N   UNL     1       9.273  11.048  25.293  0.00  0.00    -0.242 NA
ATOM      7  C   UNL     1       9.163  12.014  24.373  0.00  0.00    +0.099 A 
ENDROOT
BRANCH   1  12
ATOM      8  C   UNL     1       9.521  16.180  22.359  0.00  0.00    +0.175 A 
ATOM      9  C   UNL     1       8.320  16.243  21.682  0.00  0.00    +0.206 A 
ATOM     10  C   UNL     1       7.290  15.405  22.048  0.00  0.00    +0.175 A 
ATOM     11  C   UNL     1       7.482  14.481  23.053  0.00  0.00    +0.040 A 
ATOM     12  C   UNL     1       8.708  14.381  23.727  0.00  0.00    +0.007 A 
ATOM     13  C   UNL     1       9.723  15.272  23.384  0.00  0.00    +0.040 A 
BRANCH   8  15
ATOM     14  C   UNL     1      10.591  18.265  22.793  0.00  0.00    +0.253 C 
ATOM     15  O   UNL     1      10.449  17.089  21.961  0.00  0.00    -0.468 OA
ENDBRANCH   8  15
BRANCH   9  16
ATOM     16  O   UNL     1       8.144  17.126  20.643  0.00  0.00    -0.465 OA
ATOM     17  C   UNL     1       8.173  16.628  19.349  0.00  0.00    +0.253 C 
ENDBRANCH   9  16
BRANCH  10  18
ATOM     18  O   UNL     1       6.114  15.532  21.329  0.00  0.00    -0.468 OA
ATOM     19  C   UNL     1       4.986  16.233  21.865  0.00  0.00    +0.253 C 
ENDBRANCH  10  18
ENDBRANCH   1  12
BRANCH   4  20
ATOM     20  C   UNL     1       8.695  12.724  28.528  0.00  0.00    +0.001 A 
ATOM     21  C   UNL     1       9.852  12.800  29.386  0.00  0.00    -0.000 A 
ATOM     22  C   UNL     1       9.753  12.956  30.745  0.00  0.00    -0.004 A 
ATOM     23  C   UNL     1       8.491  13.002  31.362  0.00  0.00    -0.022 A 
ATOM     24  C   UNL     1       7.363  12.943  30.515  0.00  0.00    -0.004 A 
ATOM     25  C   UNL     1       7.447  12.764  29.181  0.00  0.00    -0.000 A 
BRANCH  23  26
ATOM     26  C   UNL     1       8.475  13.253  32.826  0.00  0.00    +0.025 C 
ATOM     27  C   UNL     1       8.763  12.054  33.681  0.00  0.00    +0.022 C 
ATOM     28  C   UNL     1       8.867  12.566  35.115  0.00  0.00    +0.072 C 
ATOM     29  N   UNL     1       7.543  13.029  35.621  0.00  0.00    -0.271 NA
ATOM     30  C   UNL     1       6.586  11.900  35.742  0.00  0.00    +0.090 C 
ATOM     31  C   UNL     1       7.016  14.141  34.791  0.00  0.00    +0.072 C 
ATOM     32  C   UNL     1       7.175  13.945  33.269  0.00  0.00    +0.022 C 
ENDBRANCH  23  26
ENDBRANCH   4  20
TORSDOF 6
ENDMDL
MODEL 9
REMARK VINA RESULT:      -5.8      8.394     11.814
REMARK  Name = 5S88_LU8.pdb
REMARK  6 active torsions:
REMARK  status: ('A' for Active; 'I' for Inactive)
REMARK    1  A    between atoms: _2  and  _3
REMARK    2  A    between atoms: _5  and  _6
REMARK    3  A    between atoms: _10  and  _11
REMARK    4  A    between atoms: _14  and  _15
REMARK    5  A    between atoms: _27  and  _28
REMARK    6  A    between atoms: _30  and  _31
REMARK                            x       y       z     vdW  Elec       q    Type
REMARK                         _______ _______ _______ _____ _____    ______ ____
ROOT
ATOM      1  C   UNL     1      16.978  16.089  32.261  0.00  0.00    +0.015 A 
ATOM      2  C   UNL     1      16.075  15.700  31.283  0.00  0.00    -0.019 A 
ATOM      3  C   UNL     1      16.247  14.366  30.619  0.00  0.00    +0.031 C 
ATOM      4  C   UNL     1      14.962  16.515  30.924  0.00  0.00    +0.015 A 
ATOM      5  C   UNL     1      14.843  17.658  31.665  0.00  0.00    +0.099 A 
ATOM      6  N   UNL     1      15.670  18.025  32.600  0.00  0.00    -0.242 NA
ATOM      7  C   UNL     1      16.736  17.279  32.915  0.00  0.00    +0.099 A 
ENDROOT
BRANCH   1  12
ATOM      8  C   UNL     1      20.363  14.388  32.318  0.00  0.00    +0.175 A 
ATOM      9  C   UNL     1      20.309  13.719  33.524  0.00  0.00    +0.206 A 
ATOM     10  C   UNL     1      19.155  13.769  34.275  0.00  0.00    +0.175 A 
ATOM     11  C   UNL     1      18.084  14.521  33.840  0.00  0.00    +0.040 A 
ATOM     12  C   UNL     1      18.137  15.234  32.633  0.00  0.00    +0.007 A 
ATOM     13  C   UNL     1      19.290  15.131  31.856  0.00  0.00    +0.040 A 
BRANCH   8  15
ATOM     14  C   UNL     1      22.021  15.392  30.931  0.00  0.00    +0.253 C 
ATOM     15  O   UNL     1      21.521  14.226  31.628  0.00  0.00    -0.468 OA
ENDBRANCH   8  15
BRANCH   9  16
ATOM     16  O   UNL     1      21.393  13.013  33.986  0.00  0.00    -0.465 OA
ATOM     17  C   UNL     1      22.335  13.687  34.749  0.00  0.00    +0.253 C 
ENDBRANCH   9  16
BRANCH  10  18
ATOM     18  O   UNL     1      19.172  13.067  35.468  0.00  0.00    -0.468 OA
ATOM     19  C   UNL     1      18.808  13.692  36.704  0.00  0.00    +0.253 C 
ENDBRANCH  10  18
ENDBRANCH   1  12
BRANCH   4  20
ATOM     20  C   UNL     1      13.969  16.185  29.892  0.00  0.00    +0.001 A 
ATOM     21  C   UNL     1      13.704  17.103  28.812  0.00  0.00    -0.000 A 
ATOM     22  C   UNL     1      12.774  16.843  27.837  0.00  0.00    -0.004 A 
ATOM     23  C   UNL     1      12.003  15.670  27.888  0.00  0.00    -0.022 A 
ATOM     24  C   UNL     1      12.279  14.770  28.940  0.00  0.00    -0.004 A 
ATOM     25  C   UNL     1      13.171  15.024  29.918  0.00  0.00    -0.000 A 
BRANCH  23  26
ATOM     26  C   UNL     1      11.078  15.431  26.750  0.00  0.00    +0.025 C 
ATOM     27  C   UNL     1      11.006  16.542  25.745  0.00  0.00    +0.022 C 
ATOM     28  C   UNL     1      10.150  16.024  24.593  0.00  0.00    +0.072 C 
ATOM     29  N   UNL     1       8.728  15.855  25.011  0.00  0.00    -0.271 NA
ATOM     30  C   UNL     1       8.099  17.163  25.326  0.00  0.00    +0.090 C 
ATOM     31  C   UNL     1       8.613  14.880  26.124  0.00  0.00    +0.072 C 
ATOM     32  C   UNL     1       9.673  15.035  27.233  0.00  0.00    +0.022 C 
ENDBRANCH  23  26
ENDBRANCH   4  20
TORSDOF 6
ENDMDL
