MODEL 1
REMARK VINA RESULT:      -7.6      0.000      0.000
REMARK  Name = 3OOM_507.pdb
REMARK  4 active torsions:
REMARK  status: ('A' for Active; 'I' for Inactive)
REMARK    1  A    between atoms: _1  and  _18
REMARK    2  A    between atoms: _16  and  _24
REMARK    3  A    between atoms: _18  and  _19
REMARK    4  A    between atoms: _20  and  _22
REMARK                            x       y       z     vdW  Elec       q    Type
REMARK                         _______ _______ _______ _____ _____    ______ ____
ROOT
ATOM      1  C   UNL     1       5.950  20.790  12.596  0.00  0.00    +0.093 A 
ATOM      2  N   UNL     1       6.299  22.105  12.438  0.00  0.00    -0.211 N 
ATOM      3  C   UNL     1       5.746  22.531  11.259  0.00  0.00    +0.155 A 
ATOM      4  N   UNL     1       5.083  21.516  10.716  0.00  0.00    -0.234 NA
ATOM      5  C   UNL     1       5.949  23.861  10.844  0.00  0.00    +0.051 A 
ATOM      6  C   UNL     1       6.691  24.694  11.623  0.00  0.00    +0.049 A 
ATOM      7  C   UNL     1       7.246  24.226  12.829  0.00  0.00    +0.140 A 
ATOM      8  N   UNL     1       8.003  25.087  13.618  0.00  0.00    -0.325 N 
ATOM      9  H   UNL     1       8.146  26.003  13.336  0.00  0.00    +0.148 HD
ATOM     10  N   UNL     1       7.056  22.987  13.216  0.00  0.00    -0.150 NA
ATOM     11  C   UNL     1       5.186  20.448  11.500  0.00  0.00    +0.141 A 
ENDROOT
BRANCH   1  14
ATOM     12  C   UNL     1       6.498  19.505  16.095  0.00  0.00    +0.018 A 
ATOM     13  C   UNL     1       6.143  20.343  15.035  0.00  0.00    +0.021 A 
ATOM     14  C   UNL     1       6.320  19.909  13.723  0.00  0.00    +0.003 A 
ATOM     15  C   UNL     1       6.851  18.640  13.476  0.00  0.00    +0.010 A 
ATOM     16  C   UNL     1       7.199  17.816  14.528  0.00  0.00    +0.001 A 
ATOM     17  C   UNL     1       7.027  18.237  15.830  0.00  0.00    +0.011 A 
BRANCH  12  19
ATOM     18  C   UNL     1       5.480  21.174  17.778  0.00  0.00    +0.091 C 
ATOM     19  C   UNL     1       6.314  19.954  17.484  0.00  0.00    +0.160 C 
ATOM     20  O   UNL     1       6.834  19.341  18.393  0.00  0.00    -0.292 OA
ENDBRANCH  12  19
ENDBRANCH   1  14
BRANCH   8  21
ATOM     21  C   UNL     1       8.584  24.607  14.875  0.00  0.00    +0.076 C 
ATOM     22  C   UNL     1      10.038  25.076  14.980  0.00  0.00    +0.050 C 
ATOM     23  C   UNL     1      10.611  24.639  16.329  0.00  0.00    +0.161 C 
ATOM     24  O   UNL     1       9.809  25.175  17.383  0.00  0.00    -0.380 OA
ATOM     25  C   UNL     1       8.450  24.734  17.363  0.00  0.00    +0.161 C 
ATOM     26  C   UNL     1       7.790  25.175  16.055  0.00  0.00    +0.050 C 
ENDBRANCH   8  21
TORSDOF 3
ENDMDL
MODEL 2
REMARK VINA RESULT:      -7.6      7.561     11.362
REMARK  Name = 3OOM_507.pdb
REMARK  4 active torsions:
REMARK  status: ('A' for Active; 'I' for Inactive)
REMARK    1  A    between atoms: _1  and  _18
REMARK    2  A    between atoms: _16  and  _24
REMARK    3  A    between atoms: _18  and  _19
REMARK    4  A    between atoms: _20  and  _22
REMARK                            x       y       z     vdW  Elec       q    Type
REMARK                         _______ _______ _______ _____ _____    ______ ____
ROOT
ATOM      1  C   UNL     1      17.690  23.136  18.710  0.00  0.00    +0.093 A 
ATOM      2  N   UNL     1      16.769  23.335  19.704  0.00  0.00    -0.211 N 
ATOM      3  C   UNL     1      17.456  23.375  20.888  0.00  0.00    +0.155 A 
ATOM      4  N   UNL     1      18.748  23.208  20.630  0.00  0.00    -0.234 NA
ATOM      5  C   UNL     1      16.746  23.571  22.089  0.00  0.00    +0.051 A 
ATOM      6  C   UNL     1      15.394  23.714  22.046  0.00  0.00    +0.049 A 
ATOM      7  C   UNL     1      14.718  23.668  20.812  0.00  0.00    +0.140 A 
ATOM      8  N   UNL     1      13.334  23.817  20.779  0.00  0.00    -0.325 N 
ATOM      9  H   UNL     1      12.842  23.950  21.604  0.00  0.00    +0.148 HD
ATOM     10  N   UNL     1      15.379  23.487  19.693  0.00  0.00    -0.150 NA
ATOM     11  C   UNL     1      18.924  23.060  19.321  0.00  0.00    +0.141 A 
ENDROOT
BRANCH   1  14
ATOM     12  C   UNL     1      17.430  21.737  15.222  0.00  0.00    +0.018 A 
ATOM     13  C   UNL     1      17.691  21.834  16.591  0.00  0.00    +0.021 A 
ATOM     14  C   UNL     1      17.415  23.023  17.262  0.00  0.00    +0.003 A 
ATOM     15  C   UNL     1      16.879  24.109  16.564  0.00  0.00    +0.010 A 
ATOM     16  C   UNL     1      16.623  24.007  15.211  0.00  0.00    +0.001 A 
ATOM     17  C   UNL     1      16.893  22.833  14.537  0.00  0.00    +0.011 A 
BRANCH  12  19
ATOM     18  C   UNL     1      18.572  19.426  15.146  0.00  0.00    +0.091 C 
ATOM     19  C   UNL     1      17.717  20.485  14.503  0.00  0.00    +0.160 C 
ATOM     20  O   UNL     1      17.264  20.307  13.391  0.00  0.00    -0.292 OA
ENDBRANCH  12  19
ENDBRANCH   1  14
BRANCH   8  21
ATOM     21  C   UNL     1      12.623  23.770  19.499  0.00  0.00    +0.076 C 
ATOM     22  C   UNL     1      11.193  23.270  19.725  0.00  0.00    +0.050 C 
ATOM     23  C   UNL     1      10.435  23.300  18.396  0.00  0.00    +0.161 C 
ATOM     24  O   UNL     1      10.450  24.628  17.869  0.00  0.00    -0.380 OA
ATOM     25  C   UNL     1      11.759  25.131  17.595  0.00  0.00    +0.161 C 
ATOM     26  C   UNL     1      12.571  25.175  18.891  0.00  0.00    +0.050 C 
ENDBRANCH   8  21
TORSDOF 3
ENDMDL
MODEL 3
REMARK VINA RESULT:      -7.5      1.712      2.010
REMARK  Name = 3OOM_507.pdb
REMARK  4 active torsions:
REMARK  status: ('A' for Active; 'I' for Inactive)
REMARK    1  A    between atoms: _1  and  _18
REMARK    2  A    between atoms: _16  and  _24
REMARK    3  A    between atoms: _18  and  _19
REMARK    4  A    between atoms: _20  and  _22
REMARK                            x       y       z     vdW  Elec       q    Type
REMARK                         _______ _______ _______ _____ _____    ______ ____
ROOT
ATOM      1  C   UNL     1       5.752  21.161  13.057  0.00  0.00    +0.093 A 
ATOM      2  N   UNL     1       5.674  22.467  13.463  0.00  0.00    -0.211 N 
ATOM      3  C   UNL     1       5.222  23.196  12.394  0.00  0.00    +0.155 A 
ATOM      4  N   UNL     1       5.030  22.368  11.373  0.00  0.00    -0.234 NA
ATOM      5  C   UNL     1       5.047  24.586  12.534  0.00  0.00    +0.051 A 
ATOM      6  C   UNL     1       5.332  25.175  13.727  0.00  0.00    +0.049 A 
ATOM      7  C   UNL     1       5.794  24.398  14.806  0.00  0.00    +0.140 A 
ATOM      8  N   UNL     1       6.082  25.011  16.022  0.00  0.00    -0.325 N 
ATOM      9  H   UNL     1       5.964  25.968  16.122  0.00  0.00    +0.148 HD
ATOM     10  N   UNL     1       5.957  23.103  14.676  0.00  0.00    -0.150 NA
ATOM     11  C   UNL     1       5.342  21.130  11.741  0.00  0.00    +0.141 A 
ENDROOT
BRANCH   1  14
ATOM     12  C   UNL     1       6.639  19.016  16.024  0.00  0.00    +0.018 A 
ATOM     13  C   UNL     1       6.219  20.109  15.261  0.00  0.00    +0.021 A 
ATOM     14  C   UNL     1       6.192  20.009  13.872  0.00  0.00    +0.003 A 
ATOM     15  C   UNL     1       6.583  18.820  13.251  0.00  0.00    +0.010 A 
ATOM     16  C   UNL     1       6.996  17.743  14.010  0.00  0.00    +0.001 A 
ATOM     17  C   UNL     1       7.026  17.832  15.387  0.00  0.00    +0.011 A 
BRANCH  12  19
ATOM     18  C   UNL     1       6.609  20.458  18.163  0.00  0.00    +0.091 C 
ATOM     19  C   UNL     1       6.671  19.110  17.492  0.00  0.00    +0.160 C 
ATOM     20  O   UNL     1       6.748  18.102  18.163  0.00  0.00    -0.292 OA
ENDBRANCH  12  19
ENDBRANCH   1  14
BRANCH   8  21
ATOM     21  C   UNL     1       6.564  24.210  17.150  0.00  0.00    +0.076 C 
ATOM     22  C   UNL     1       8.065  24.445  17.342  0.00  0.00    +0.050 C 
ATOM     23  C   UNL     1       8.543  23.667  18.569  0.00  0.00    +0.161 C 
ATOM     24  O   UNL     1       7.795  24.079  19.715  0.00  0.00    -0.380 OA
ATOM     25  C   UNL     1       6.390  23.840  19.611  0.00  0.00    +0.161 C 
ATOM     26  C   UNL     1       5.825  24.626  18.425  0.00  0.00    +0.050 C 
ENDBRANCH   8  21
TORSDOF 3
ENDMDL
MODEL 4
REMARK VINA RESULT:      -7.5      4.984      7.352
REMARK  Name = 3OOM_507.pdb
REMARK  4 active torsions:
REMARK  status: ('A' for Active; 'I' for Inactive)
REMARK    1  A    between atoms: _1  and  _18
REMARK    2  A    between atoms: _16  and  _24
REMARK    3  A    between atoms: _18  and  _19
REMARK    4  A    between atoms: _20  and  _22
REMARK                            x       y       z     vdW  Elec       q    Type
REMARK                         _______ _______ _______ _____ _____    ______ ____
ROOT
ATOM      1  C   UNL     1       6.954  16.711  18.003  0.00  0.00    +0.093 A 
ATOM      2  N   UNL     1       7.484  16.908  19.251  0.00  0.00    -0.211 N 
ATOM      3  C   UNL     1       7.377  15.721  19.926  0.00  0.00    +0.155 A 
ATOM      4  N   UNL     1       6.805  14.831  19.123  0.00  0.00    -0.234 NA
ATOM      5  C   UNL     1       7.850  15.638  21.250  0.00  0.00    +0.051 A 
ATOM      6  C   UNL     1       8.401  16.738  21.830  0.00  0.00    +0.049 A 
ATOM      7  C   UNL     1       8.496  17.943  21.108  0.00  0.00    +0.140 A 
ATOM      8  N   UNL     1       9.063  19.063  21.711  0.00  0.00    -0.325 N 
ATOM      9  H   UNL     1       9.388  19.010  22.623  0.00  0.00    +0.148 HD
ATOM     10  N   UNL     1       8.057  18.021  19.875  0.00  0.00    -0.150 NA
ATOM     11  C   UNL     1       6.537  15.398  17.952  0.00  0.00    +0.141 A 
ENDROOT
BRANCH   1  14
ATOM     12  C   UNL     1       6.363  19.958  16.187  0.00  0.00    +0.018 A 
ATOM     13  C   UNL     1       6.462  19.018  17.215  0.00  0.00    +0.021 A 
ATOM     14  C   UNL     1       6.851  17.713  16.921  0.00  0.00    +0.003 A 
ATOM     15  C   UNL     1       7.140  17.353  15.603  0.00  0.00    +0.010 A 
ATOM     16  C   UNL     1       7.043  18.287  14.590  0.00  0.00    +0.001 A 
ATOM     17  C   UNL     1       6.658  19.582  14.872  0.00  0.00    +0.011 A 
BRANCH  12  19
ATOM     18  C   UNL     1       5.713  21.762  17.912  0.00  0.00    +0.091 C 
ATOM     19  C   UNL     1       5.954  21.340  16.486  0.00  0.00    +0.160 C 
ATOM     20  O   UNL     1       5.811  22.139  15.584  0.00  0.00    -0.292 OA
ENDBRANCH  12  19
ENDBRANCH   1  14
BRANCH   8  21
ATOM     21  C   UNL     1       9.165  20.321  20.967  0.00  0.00    +0.076 C 
ATOM     22  C   UNL     1       8.341  21.402  21.672  0.00  0.00    +0.050 C 
ATOM     23  C   UNL     1       8.517  22.730  20.934  0.00  0.00    +0.161 C 
ATOM     24  O   UNL     1       9.905  23.071  20.892  0.00  0.00    -0.380 OA
ATOM     25  C   UNL     1      10.718  22.119  20.203  0.00  0.00    +0.161 C 
ATOM     26  C   UNL     1      10.630  20.765  20.913  0.00  0.00    +0.050 C 
ENDBRANCH   8  21
TORSDOF 3
ENDMDL
MODEL 5
REMARK VINA RESULT:      -7.4      7.926     10.778
REMARK  Name = 3OOM_507.pdb
REMARK  4 active torsions:
REMARK  status: ('A' for Active; 'I' for Inactive)
REMARK    1  A    between atoms: _1  and  _18
REMARK    2  A    between atoms: _16  and  _24
REMARK    3  A    between atoms: _18  and  _19
REMARK    4  A    between atoms: _20  and  _22
REMARK                            x       y       z     vdW  Elec       q    Type
REMARK                         _______ _______ _______ _____ _____    ______ ____
ROOT
ATOM      1  C   UNL     1      14.653  23.368  21.334  0.00  0.00    +0.093 A 
ATOM      2  N   UNL     1      15.905  23.302  20.780  0.00  0.00    -0.211 N 
ATOM      3  C   UNL     1      16.804  23.343  21.813  0.00  0.00    +0.155 A 
ATOM      4  N   UNL     1      16.130  23.430  22.954  0.00  0.00    -0.234 NA
ATOM      5  C   UNL     1      18.182  23.291  21.526  0.00  0.00    +0.051 A 
ATOM      6  C   UNL     1      18.589  23.203  20.232  0.00  0.00    +0.049 A 
ATOM      7  C   UNL     1      17.639  23.163  19.194  0.00  0.00    +0.140 A 
ATOM      8  N   UNL     1      18.066  23.072  17.872  0.00  0.00    -0.325 N 
ATOM      9  H   UNL     1      19.014  23.037  17.671  0.00  0.00    +0.148 HD
ATOM     10  N   UNL     1      16.355  23.211  19.460  0.00  0.00    -0.150 NA
ATOM     11  C   UNL     1      14.826  23.447  22.699  0.00  0.00    +0.141 A 
ENDROOT
BRANCH   1  14
ATOM     12  C   UNL     1      11.236  22.328  20.137  0.00  0.00    +0.018 A 
ATOM     13  C   UNL     1      12.449  22.332  20.830  0.00  0.00    +0.021 A 
ATOM     14  C   UNL     1      13.366  23.357  20.607  0.00  0.00    +0.003 A 
ATOM     15  C   UNL     1      13.068  24.372  19.694  0.00  0.00    +0.010 A 
ATOM     16  C   UNL     1      11.867  24.363  19.013  0.00  0.00    +0.001 A 
ATOM     17  C   UNL     1      10.952  23.352  19.227  0.00  0.00    +0.011 A 
BRANCH  12  19
ATOM     18  C   UNL     1      10.670  20.006  21.107  0.00  0.00    +0.091 C 
ATOM     19  C   UNL     1      10.259  21.251  20.365  0.00  0.00    +0.160 C 
ATOM     20  O   UNL     1       9.123  21.366  19.955  0.00  0.00    -0.292 OA
ENDBRANCH  12  19
ENDBRANCH   1  14
BRANCH   8  21
ATOM     21  C   UNL     1      17.084  23.030  16.786  0.00  0.00    +0.076 C 
ATOM     22  C   UNL     1      17.132  24.343  16.000  0.00  0.00    +0.050 C 
ATOM     23  C   UNL     1      16.160  24.260  14.821  0.00  0.00    +0.161 C 
ATOM     24  O   UNL     1      16.504  23.141  13.999  0.00  0.00    -0.380 OA
ATOM     25  C   UNL     1      16.430  21.882  14.670  0.00  0.00    +0.161 C 
ATOM     26  C   UNL     1      17.413  21.870  15.843  0.00  0.00    +0.050 C 
ENDBRANCH   8  21
TORSDOF 3
ENDMDL
MODEL 6
REMARK VINA RESULT:      -7.3      2.833      5.661
REMARK  Name = 3OOM_507.pdb
REMARK  4 active torsions:
REMARK  status: ('A' for Active; 'I' for Inactive)
REMARK    1  A    between atoms: _1  and  _18
REMARK    2  A    between atoms: _16  and  _24
REMARK    3  A    between atoms: _18  and  _19
REMARK    4  A    between atoms: _20  and  _22
REMARK                            x       y       z     vdW  Elec       q    Type
REMARK                         _______ _______ _______ _____ _____    ______ ____
ROOT
ATOM      1  C   UNL     1       6.204  21.678  15.127  0.00  0.00    +0.093 A 
ATOM      2  N   UNL     1       5.598  22.395  14.128  0.00  0.00    -0.211 N 
ATOM      3  C   UNL     1       5.565  23.703  14.534  0.00  0.00    +0.155 A 
ATOM      4  N   UNL     1       6.130  23.785  15.734  0.00  0.00    -0.234 NA
ATOM      5  C   UNL     1       4.989  24.671  13.689  0.00  0.00    +0.051 A 
ATOM      6  C   UNL     1       4.476  24.286  12.490  0.00  0.00    +0.049 A 
ATOM      7  C   UNL     1       4.525  22.934  12.102  0.00  0.00    +0.140 A 
ATOM      8  N   UNL     1       3.998  22.550  10.872  0.00  0.00    -0.325 N 
ATOM      9  H   UNL     1       3.599  23.213  10.288  0.00  0.00    +0.148 HD
ATOM     10  N   UNL     1       5.063  22.031  12.889  0.00  0.00    -0.150 NA
ATOM     11  C   UNL     1       6.527  22.578  16.121  0.00  0.00    +0.141 A 
ENDROOT
BRANCH   1  14
ATOM     12  C   UNL     1       6.784  18.162  16.345  0.00  0.00    +0.018 A 
ATOM     13  C   UNL     1       6.539  19.537  16.345  0.00  0.00    +0.021 A 
ATOM     14  C   UNL     1       6.460  20.223  15.136  0.00  0.00    +0.003 A 
ATOM     15  C   UNL     1       6.627  19.533  13.932  0.00  0.00    +0.010 A 
ATOM     16  C   UNL     1       6.868  18.174  13.938  0.00  0.00    +0.001 A 
ATOM     17  C   UNL     1       6.947  17.485  15.131  0.00  0.00    +0.011 A 
BRANCH  12  19
ATOM     18  C   UNL     1       6.869  15.920  17.618  0.00  0.00    +0.091 C 
ATOM     19  C   UNL     1       6.868  17.426  17.617  0.00  0.00    +0.160 C 
ATOM     20  O   UNL     1       6.935  18.034  18.665  0.00  0.00    -0.292 OA
ENDBRANCH  12  19
ENDBRANCH   1  14
BRANCH   8  21
ATOM     21  C   UNL     1       4.045  21.145  10.462  0.00  0.00    +0.076 C 
ATOM     22  C   UNL     1       2.797  20.808   9.641  0.00  0.00    +0.050 C 
ATOM     23  C   UNL     1       2.892  19.362   9.151  0.00  0.00    +0.161 C 
ATOM     24  O   UNL     1       4.087  19.198   8.382  0.00  0.00    -0.380 OA
ATOM     25  C   UNL     1       5.288  19.454   9.112  0.00  0.00    +0.161 C 
ATOM     26  C   UNL     1       5.289  20.905   9.601  0.00  0.00    +0.050 C 
ENDBRANCH   8  21
TORSDOF 3
ENDMDL
MODEL 7
REMARK VINA RESULT:      -7.3      7.435     10.949
REMARK  Name = 3OOM_507.pdb
REMARK  4 active torsions:
REMARK  status: ('A' for Active; 'I' for Inactive)
REMARK    1  A    between atoms: _1  and  _18
REMARK    2  A    between atoms: _16  and  _24
REMARK    3  A    between atoms: _18  and  _19
REMARK    4  A    between atoms: _20  and  _22
REMARK                            x       y       z     vdW  Elec       q    Type
REMARK                         _______ _______ _______ _____ _____    ______ ____
ROOT
ATOM      1  C   UNL     1      17.440  23.014  18.445  0.00  0.00    +0.093 A 
ATOM      2  N   UNL     1      16.859  23.040  19.686  0.00  0.00    -0.211 N 
ATOM      3  C   UNL     1      17.851  23.314  20.590  0.00  0.00    +0.155 A 
ATOM      4  N   UNL     1      18.995  23.451  19.929  0.00  0.00    -0.234 NA
ATOM      5  C   UNL     1      17.530  23.399  21.959  0.00  0.00    +0.051 A 
ATOM      6  C   UNL     1      16.243  23.207  22.353  0.00  0.00    +0.049 A 
ATOM      7  C   UNL     1      15.247  22.927  21.399  0.00  0.00    +0.140 A 
ATOM      8  N   UNL     1      13.932  22.732  21.813  0.00  0.00    -0.325 N 
ATOM      9  H   UNL     1      13.707  22.789  22.754  0.00  0.00    +0.148 HD
ATOM     10  N   UNL     1      15.545  22.848  20.123  0.00  0.00    -0.150 NA
ATOM     11  C   UNL     1      18.781  23.276  18.630  0.00  0.00    +0.141 A 
ENDROOT
BRANCH   1  14
ATOM     12  C   UNL     1      14.912  23.132  15.654  0.00  0.00    +0.018 A 
ATOM     13  C   UNL     1      15.550  23.384  16.871  0.00  0.00    +0.021 A 
ATOM     14  C   UNL     1      16.760  22.755  17.159  0.00  0.00    +0.003 A 
ATOM     15  C   UNL     1      17.327  21.879  16.230  0.00  0.00    +0.010 A 
ATOM     16  C   UNL     1      16.693  21.634  15.029  0.00  0.00    +0.001 A 
ATOM     17  C   UNL     1      15.494  22.252  14.735  0.00  0.00    +0.011 A 
BRANCH  12  19
ATOM     18  C   UNL     1      12.791  23.292  14.196  0.00  0.00    +0.091 C 
ATOM     19  C   UNL     1      13.635  23.791  15.340  0.00  0.00    +0.160 C 
ATOM     20  O   UNL     1      13.261  24.737  16.002  0.00  0.00    -0.292 OA
ENDBRANCH  12  19
ENDBRANCH   1  14
BRANCH   8  21
ATOM     21  C   UNL     1      12.889  22.440  20.826  0.00  0.00    +0.076 C 
ATOM     22  C   UNL     1      11.827  21.535  21.455  0.00  0.00    +0.050 C 
ATOM     23  C   UNL     1      10.703  21.300  20.444  0.00  0.00    +0.161 C 
ATOM     24  O   UNL     1      10.152  22.557  20.044  0.00  0.00    -0.380 OA
ATOM     25  C   UNL     1      11.090  23.427  19.407  0.00  0.00    +0.161 C 
ATOM     26  C   UNL     1      12.229  23.748  20.377  0.00  0.00    +0.050 C 
ENDBRANCH   8  21
TORSDOF 3
ENDMDL
MODEL 8
REMARK VINA RESULT:      -7.2      2.194      5.670
REMARK  Name = 3OOM_507.pdb
REMARK  4 active torsions:
REMARK  status: ('A' for Active; 'I' for Inactive)
REMARK    1  A    between atoms: _1  and  _18
REMARK    2  A    between atoms: _16  and  _24
REMARK    3  A    between atoms: _18  and  _19
REMARK    4  A    between atoms: _20  and  _22
REMARK                            x       y       z     vdW  Elec       q    Type
REMARK                         _______ _______ _______ _____ _____    ______ ____
ROOT
ATOM      1  C   UNL     1       6.808  22.964  14.786  0.00  0.00    +0.093 A 
ATOM      2  N   UNL     1       6.500  23.019  13.452  0.00  0.00    -0.211 N 
ATOM      3  C   UNL     1       6.948  24.225  12.984  0.00  0.00    +0.155 A 
ATOM      4  N   UNL     1       7.509  24.885  13.991  0.00  0.00    -0.234 NA
ATOM      5  C   UNL     1       6.760  24.549  11.626  0.00  0.00    +0.051 A 
ATOM      6  C   UNL     1       6.137  23.657  10.810  0.00  0.00    +0.049 A 
ATOM      7  C   UNL     1       5.689  22.425  11.323  0.00  0.00    +0.140 A 
ATOM      8  N   UNL     1       5.053  21.519  10.479  0.00  0.00    -0.325 N 
ATOM      9  H   UNL     1       4.920  21.739   9.544  0.00  0.00    +0.148 HD
ATOM     10  N   UNL     1       5.864  22.122  12.587  0.00  0.00    -0.150 NA
ATOM     11  C   UNL     1       7.441  24.149  15.096  0.00  0.00    +0.141 A 
ENDROOT
BRANCH   1  14
ATOM     12  C   UNL     1       6.553  19.496  16.234  0.00  0.00    +0.018 A 
ATOM     13  C   UNL     1       6.834  20.543  15.353  0.00  0.00    +0.021 A 
ATOM     14  C   UNL     1       6.517  21.850  15.713  0.00  0.00    +0.003 A 
ATOM     15  C   UNL     1       5.922  22.107  16.951  0.00  0.00    +0.010 A 
ATOM     16  C   UNL     1       5.647  21.068  17.818  0.00  0.00    +0.001 A 
ATOM     17  C   UNL     1       5.958  19.769  17.470  0.00  0.00    +0.011 A 
BRANCH  12  19
ATOM     18  C   UNL     1       7.129  17.754  14.420  0.00  0.00    +0.091 C 
ATOM     19  C   UNL     1       6.885  18.110  15.864  0.00  0.00    +0.160 C 
ATOM     20  O   UNL     1       6.961  17.255  16.721  0.00  0.00    -0.292 OA
ENDBRANCH  12  19
ENDBRANCH   1  14
BRANCH   8  21
ATOM     21  C   UNL     1       4.582  20.235  11.004  0.00  0.00    +0.076 C 
ATOM     22  C   UNL     1       3.352  19.777  10.216  0.00  0.00    +0.050 C 
ATOM     23  C   UNL     1       2.916  18.400  10.718  0.00  0.00    +0.161 C 
ATOM     24  O   UNL     1       4.000  17.478  10.582  0.00  0.00    -0.380 OA
ATOM     25  C   UNL     1       5.162  17.831  11.335  0.00  0.00    +0.161 C 
ATOM     26  C   UNL     1       5.689  19.186  10.857  0.00  0.00    +0.050 C 
ENDBRANCH   8  21
TORSDOF 3
ENDMDL
MODEL 9
REMARK VINA RESULT:      -7.2      2.987      4.154
REMARK  Name = 3OOM_507.pdb
REMARK  4 active torsions:
REMARK  status: ('A' for Active; 'I' for Inactive)
REMARK    1  A    between atoms: _1  and  _18
REMARK    2  A    between atoms: _16  and  _24
REMARK    3  A    between atoms: _18  and  _19
REMARK    4  A    between atoms: _20  and  _22
REMARK                            x       y       z     vdW  Elec       q    Type
REMARK                         _______ _______ _______ _____ _____    ______ ____
ROOT
ATOM      1  C   UNL     1       6.157  21.205  15.268  0.00  0.00    +0.093 A 
ATOM      2  N   UNL     1       6.504  22.281  16.042  0.00  0.00    -0.211 N 
ATOM      3  C   UNL     1       5.999  23.398  15.431  0.00  0.00    +0.155 A 
ATOM      4  N   UNL     1       5.366  23.021  14.325  0.00  0.00    -0.234 NA
ATOM      5  C   UNL     1       6.211  24.659  16.019  0.00  0.00    +0.051 A 
ATOM      6  C   UNL     1       6.913  24.742  17.181  0.00  0.00    +0.049 A 
ATOM      7  C   UNL     1       7.419  23.574  17.784  0.00  0.00    +0.140 A 
ATOM      8  N   UNL     1       8.137  23.670  18.973  0.00  0.00    -0.325 N 
ATOM      9  H   UNL     1       8.286  24.536  19.381  0.00  0.00    +0.148 HD
ATOM     10  N   UNL     1       7.222  22.398  17.237  0.00  0.00    -0.150 NA
ATOM     11  C   UNL     1       5.443  21.701  14.198  0.00  0.00    +0.141 A 
ENDROOT
BRANCH   1  14
ATOM     12  C   UNL     1       6.863  17.978  17.078  0.00  0.00    +0.018 A 
ATOM     13  C   UNL     1       6.550  19.318  16.840  0.00  0.00    +0.021 A 
ATOM     14  C   UNL     1       6.485  19.788  15.530  0.00  0.00    +0.003 A 
ATOM     15  C   UNL     1       6.733  18.918  14.465  0.00  0.00    +0.010 A 
ATOM     16  C   UNL     1       7.041  17.594  14.707  0.00  0.00    +0.001 A 
ATOM     17  C   UNL     1       7.108  17.119  16.001  0.00  0.00    +0.011 A 
BRANCH  12  19
ATOM     18  C   UNL     1       6.518  16.055  18.762  0.00  0.00    +0.091 C 
ATOM     19  C   UNL     1       6.934  17.471  18.458  0.00  0.00    +0.160 C 
ATOM     20  O   UNL     1       7.327  18.193  19.350  0.00  0.00    -0.292 OA
ENDBRANCH  12  19
ENDBRANCH   1  14
BRANCH   8  21
ATOM     21  C   UNL     1       8.667  22.460  19.607  0.00  0.00    +0.076 C 
ATOM     22  C   UNL     1      10.164  22.636  19.876  0.00  0.00    +0.050 C 
ATOM     23  C   UNL     1      10.692  21.401  20.609  0.00  0.00    +0.161 C 
ATOM     24  O   UNL     1       9.958  21.217  21.822  0.00  0.00    -0.380 OA
ATOM     25  C   UNL     1       8.559  21.001  21.629  0.00  0.00    +0.161 C 
ATOM     26  C   UNL     1       7.945  22.221  20.937  0.00  0.00    +0.050 C 
ENDBRANCH   8  21
TORSDOF 3
ENDMDL
