MODEL 1
REMARK VINA RESULT:      -6.9      0.000      0.000
REMARK  Name = 5OXG_B4B.pdb
REMARK  3 active torsions:
REMARK  status: ('A' for Active; 'I' for Inactive)
REMARK    1  A    between atoms: _3  and  _7
REMARK    2  A    between atoms: _10  and  _13
REMARK    3  A    between atoms: _17  and  _22
REMARK                            x       y       z     vdW  Elec       q    Type
REMARK                         _______ _______ _______ _____ _____    ______ ____
ROOT
ATOM      1  C   UNL     1       9.532  35.529  28.850  0.00  0.00    +0.038 A 
ATOM      2  C   UNL     1      10.504  36.224  28.120  0.00  0.00    +0.104 A 
ATOM      3  N   UNL     1      10.148  36.973  27.025  0.00  0.00    -0.211 N 
ATOM      4  N   UNL     1      10.913  37.710  26.159  0.00  0.00    -0.162 NA
ATOM      5  C   UNL     1      10.114  38.283  25.250  0.00  0.00    +0.124 A 
ATOM      6  C   UNL     1       8.798  37.919  25.506  0.00  0.00    +0.057 A 
ATOM      7  C   UNL     1       8.874  37.079  26.657  0.00  0.00    +0.165 A 
ATOM      8  N   UNL     1       7.892  36.423  27.349  0.00  0.00    -0.225 NA
ATOM      9  C   UNL     1       8.196  35.684  28.436  0.00  0.00    +0.102 A 
ENDROOT
BRANCH   6  10
ATOM     10  C   UNL     1       7.707  38.325  24.715  0.00  0.00    +0.006 A 
ATOM     11  C   UNL     1       6.851  39.455  24.974  0.00  0.00    +0.018 A 
ATOM     12  C   UNL     1       6.983  40.297  26.135  0.00  0.00    +0.003 A 
ATOM     13  C   UNL     1       6.101  41.359  26.312  0.00  0.00    +0.021 A 
ATOM     14  C   UNL     1       5.104  41.611  25.362  0.00  0.00    +0.099 A 
ATOM     15  N   UNL     1       4.971  40.827  24.271  0.00  0.00    -0.244 NA
ATOM     16  C   UNL     1       5.836  39.761  24.082  0.00  0.00    +0.081 A 
ATOM     17  C   UNL     1       5.622  38.988  22.908  0.00  0.00    +0.019 A 
ATOM     18  C   UNL     1       6.468  37.914  22.637  0.00  0.00    +0.002 A 
ATOM     19  C   UNL     1       7.487  37.588  23.544  0.00  0.00    +0.000 A 
ENDBRANCH   6  10
BRANCH   1  23
ATOM     20  C   UNL     1      10.591  33.239  32.270  0.00  0.00    +0.048 A 
ATOM     21  C   UNL     1       9.270  33.465  31.947  0.00  0.00    +0.015 A 
ATOM     22  C   UNL     1       8.917  34.222  30.834  0.00  0.00    +0.001 A 
ATOM     23  C   UNL     1       9.879  34.793  30.004  0.00  0.00    +0.003 A 
ATOM     24  C   UNL     1      11.217  34.531  30.310  0.00  0.00    +0.001 A 
ATOM     25  C   UNL     1      11.558  33.765  31.416  0.00  0.00    +0.015 A 
BRANCH  20  30
ATOM     26  C   UNL     1      12.546  31.027  34.723  0.00  0.00    +0.110 C 
ATOM     27  N   UNL     1      11.512  30.105  35.106  0.00  0.00    -0.214 NA
ATOM     28  C   UNL     1      10.190  30.700  35.055  0.00  0.00    +0.110 C 
ATOM     29  C   UNL     1       9.910  31.443  33.752  0.00  0.00    +0.110 C 
ATOM     30  N   UNL     1      10.911  32.424  33.403  0.00  0.00    -0.305 N 
ATOM     31  C   UNL     1      12.219  31.823  33.464  0.00  0.00    +0.110 C 
ENDBRANCH  20  30
ENDBRANCH   1  23
TORSDOF 3
ENDMDL
MODEL 2
REMARK VINA RESULT:      -6.8      1.001      2.442
REMARK  Name = 5OXG_B4B.pdb
REMARK  3 active torsions:
REMARK  status: ('A' for Active; 'I' for Inactive)
REMARK    1  A    between atoms: _3  and  _7
REMARK    2  A    between atoms: _10  and  _13
REMARK    3  A    between atoms: _17  and  _22
REMARK                            x       y       z     vdW  Elec       q    Type
REMARK                         _______ _______ _______ _____ _____    ______ ____
ROOT
ATOM      1  C   UNL     1       9.016  35.667  29.024  0.00  0.00    +0.038 A 
ATOM      2  C   UNL     1       9.993  36.607  28.671  0.00  0.00    +0.104 A 
ATOM      3  N   UNL     1       9.703  37.604  27.772  0.00  0.00    -0.211 N 
ATOM      4  N   UNL     1      10.490  38.608  27.268  0.00  0.00    -0.162 NA
ATOM      5  C   UNL     1       9.760  39.354  26.427  0.00  0.00    +0.124 A 
ATOM      6  C   UNL     1       8.472  38.838  26.363  0.00  0.00    +0.057 A 
ATOM      7  C   UNL     1       8.488  37.717  27.246  0.00  0.00    +0.165 A 
ATOM      8  N   UNL     1       7.502  36.825  27.572  0.00  0.00    -0.225 NA
ATOM      9  C   UNL     1       7.740  35.834  28.457  0.00  0.00    +0.102 A 
ENDROOT
BRANCH   6  10
ATOM     10  C   UNL     1       7.458  39.370  25.545  0.00  0.00    +0.006 A 
ATOM     11  C   UNL     1       7.030  38.835  24.277  0.00  0.00    +0.018 A 
ATOM     12  C   UNL     1       7.641  37.690  23.655  0.00  0.00    +0.003 A 
ATOM     13  C   UNL     1       7.171  37.251  22.420  0.00  0.00    +0.021 A 
ATOM     14  C   UNL     1       6.106  37.913  21.797  0.00  0.00    +0.099 A 
ATOM     15  N   UNL     1       5.527  38.989  22.371  0.00  0.00    -0.244 NA
ATOM     16  C   UNL     1       5.986  39.444  23.597  0.00  0.00    +0.081 A 
ATOM     17  C   UNL     1       5.320  40.584  24.126  0.00  0.00    +0.019 A 
ATOM     18  C   UNL     1       5.711  41.084  25.367  0.00  0.00    +0.002 A 
ATOM     19  C   UNL     1       6.776  40.483  26.053  0.00  0.00    +0.000 A 
ENDBRANCH   6  10
BRANCH   1  23
ATOM     20  C   UNL     1       9.824  32.711  31.969  0.00  0.00    +0.048 A 
ATOM     21  C   UNL     1      10.844  33.288  31.242  0.00  0.00    +0.015 A 
ATOM     22  C   UNL     1      10.585  34.249  30.269  0.00  0.00    +0.001 A 
ATOM     23  C   UNL     1       9.287  34.664  29.980  0.00  0.00    +0.003 A 
ATOM     24  C   UNL     1       8.258  34.108  30.745  0.00  0.00    +0.001 A 
ATOM     25  C   UNL     1       8.528  33.158  31.720  0.00  0.00    +0.015 A 
BRANCH  20  30
ATOM     26  C   UNL     1       9.540  30.500  35.093  0.00  0.00    +0.110 C 
ATOM     27  N   UNL     1      10.902  30.536  35.549  0.00  0.00    -0.214 NA
ATOM     28  C   UNL     1      11.848  30.699  34.462  0.00  0.00    +0.110 C 
ATOM     29  C   UNL     1      11.482  31.828  33.503  0.00  0.00    +0.110 C 
ATOM     30  N   UNL     1      10.136  31.752  32.986  0.00  0.00    -0.305 N 
ATOM     31  C   UNL     1       9.208  31.585  34.074  0.00  0.00    +0.110 C 
ENDBRANCH  20  30
ENDBRANCH   1  23
TORSDOF 3
ENDMDL
MODEL 3
REMARK VINA RESULT:      -6.6      2.124      3.931
REMARK  Name = 5OXG_B4B.pdb
REMARK  3 active torsions:
REMARK  status: ('A' for Active; 'I' for Inactive)
REMARK    1  A    between atoms: _3  and  _7
REMARK    2  A    between atoms: _10  and  _13
REMARK    3  A    between atoms: _17  and  _22
REMARK                            x       y       z     vdW  Elec       q    Type
REMARK                         _______ _______ _______ _____ _____    ______ ____
ROOT
ATOM      1  C   UNL     1       7.779  37.695  26.930  0.00  0.00    +0.038 A 
ATOM      2  C   UNL     1       7.349  37.303  25.656  0.00  0.00    +0.104 A 
ATOM      3  N   UNL     1       6.873  38.235  24.767  0.00  0.00    -0.211 N 
ATOM      4  N   UNL     1       6.387  38.087  23.493  0.00  0.00    -0.162 NA
ATOM      5  C   UNL     1       6.055  39.292  23.011  0.00  0.00    +0.124 A 
ATOM      6  C   UNL     1       6.315  40.256  23.977  0.00  0.00    +0.057 A 
ATOM      7  C   UNL     1       6.841  39.526  25.083  0.00  0.00    +0.165 A 
ATOM      8  N   UNL     1       7.260  39.952  26.315  0.00  0.00    -0.225 NA
ATOM      9  C   UNL     1       7.743  39.072  27.216  0.00  0.00    +0.102 A 
ENDROOT
BRANCH   6  10
ATOM     10  C   UNL     1       6.049  41.627  23.802  0.00  0.00    +0.006 A 
ATOM     11  C   UNL     1       5.109  42.408  24.566  0.00  0.00    +0.018 A 
ATOM     12  C   UNL     1       4.269  41.851  25.594  0.00  0.00    +0.003 A 
ATOM     13  C   UNL     1       3.378  42.678  26.272  0.00  0.00    +0.021 A 
ATOM     14  C   UNL     1       3.310  44.042  25.962  0.00  0.00    +0.099 A 
ATOM     15  N   UNL     1       4.092  44.574  24.999  0.00  0.00    -0.244 NA
ATOM     16  C   UNL     1       4.980  43.764  24.309  0.00  0.00    +0.081 A 
ATOM     17  C   UNL     1       5.762  44.408  23.310  0.00  0.00    +0.019 A 
ATOM     18  C   UNL     1       6.695  43.662  22.592  0.00  0.00    +0.002 A 
ATOM     19  C   UNL     1       6.819  42.287  22.835  0.00  0.00    +0.000 A 
ENDBRANCH   6  10
BRANCH   1  23
ATOM     20  C   UNL     1       9.375  34.923  29.729  0.00  0.00    +0.048 A 
ATOM     21  C   UNL     1      10.201  35.658  28.905  0.00  0.00    +0.015 A 
ATOM     22  C   UNL     1       9.684  36.560  27.981  0.00  0.00    +0.001 A 
ATOM     23  C   UNL     1       8.312  36.753  27.838  0.00  0.00    +0.003 A 
ATOM     24  C   UNL     1       7.477  36.037  28.700  0.00  0.00    +0.001 A 
ATOM     25  C   UNL     1       8.004  35.148  29.627  0.00  0.00    +0.015 A 
BRANCH  20  30
ATOM     26  C   UNL     1      11.718  32.370  31.380  0.00  0.00    +0.110 C 
ATOM     27  N   UNL     1      10.761  31.596  32.121  0.00  0.00    -0.214 NA
ATOM     28  C   UNL     1       9.609  32.377  32.527  0.00  0.00    +0.110 C 
ATOM     29  C   UNL     1       9.002  33.197  31.391  0.00  0.00    +0.110 C 
ATOM     30  N   UNL     1       9.949  34.033  30.693  0.00  0.00    -0.305 N 
ATOM     31  C   UNL     1      11.091  33.247  30.301  0.00  0.00    +0.110 C 
ENDBRANCH  20  30
ENDBRANCH   1  23
TORSDOF 3
ENDMDL
MODEL 4
REMARK VINA RESULT:      -6.6      8.141     10.133
REMARK  Name = 5OXG_B4B.pdb
REMARK  3 active torsions:
REMARK  status: ('A' for Active; 'I' for Inactive)
REMARK    1  A    between atoms: _3  and  _7
REMARK    2  A    between atoms: _10  and  _13
REMARK    3  A    between atoms: _17  and  _22
REMARK                            x       y       z     vdW  Elec       q    Type
REMARK                         _______ _______ _______ _____ _____    ______ ____
ROOT
ATOM      1  C   UNL     1       6.040  40.112  23.390  0.00  0.00    +0.038 A 
ATOM      2  C   UNL     1       5.971  38.719  23.262  0.00  0.00    +0.104 A 
ATOM      3  N   UNL     1       6.530  38.093  22.175  0.00  0.00    -0.211 N 
ATOM      4  N   UNL     1       6.569  36.767  21.830  0.00  0.00    -0.162 NA
ATOM      5  C   UNL     1       7.245  36.635  20.680  0.00  0.00    +0.124 A 
ATOM      6  C   UNL     1       7.656  37.889  20.248  0.00  0.00    +0.057 A 
ATOM      7  C   UNL     1       7.174  38.790  21.243  0.00  0.00    +0.165 A 
ATOM      8  N   UNL     1       7.272  40.152  21.335  0.00  0.00    -0.225 NA
ATOM      9  C   UNL     1       6.745  40.807  22.391  0.00  0.00    +0.102 A 
ENDROOT
BRANCH   6  10
ATOM     10  C   UNL     1       8.364  38.108  19.052  0.00  0.00    +0.006 A 
ATOM     11  C   UNL     1       7.813  38.629  17.827  0.00  0.00    +0.018 A 
ATOM     12  C   UNL     1       6.419  38.949  17.661  0.00  0.00    +0.003 A 
ATOM     13  C   UNL     1       5.970  39.435  16.436  0.00  0.00    +0.021 A 
ATOM     14  C   UNL     1       6.871  39.620  15.380  0.00  0.00    +0.099 A 
ATOM     15  N   UNL     1       8.180  39.322  15.525  0.00  0.00    -0.244 NA
ATOM     16  C   UNL     1       8.643  38.831  16.736  0.00  0.00    +0.081 A 
ATOM     17  C   UNL     1      10.034  38.542  16.798  0.00  0.00    +0.019 A 
ATOM     18  C   UNL     1      10.577  38.068  17.991  0.00  0.00    +0.002 A 
ATOM     19  C   UNL     1       9.741  37.846  19.094  0.00  0.00    +0.000 A 
ENDBRANCH   6  10
BRANCH   1  23
ATOM     20  C   UNL     1       4.416  41.991  26.839  0.00  0.00    +0.048 A 
ATOM     21  C   UNL     1       3.714  41.953  25.653  0.00  0.00    +0.015 A 
ATOM     22  C   UNL     1       4.244  41.347  24.518  0.00  0.00    +0.001 A 
ATOM     23  C   UNL     1       5.509  40.764  24.525  0.00  0.00    +0.003 A 
ATOM     24  C   UNL     1       6.204  40.769  25.738  0.00  0.00    +0.001 A 
ATOM     25  C   UNL     1       5.661  41.365  26.867  0.00  0.00    +0.015 A 
BRANCH  20  30
ATOM     26  C   UNL     1       2.544  42.411  30.164  0.00  0.00    +0.110 C 
ATOM     27  N   UNL     1       1.846  43.639  29.903  0.00  0.00    -0.214 NA
ATOM     28  C   UNL     1       2.565  44.505  28.989  0.00  0.00    +0.110 C 
ATOM     29  C   UNL     1       3.053  43.788  27.733  0.00  0.00    +0.110 C 
ATOM     30  N   UNL     1       3.819  42.592  27.994  0.00  0.00    -0.305 N 
ATOM     31  C   UNL     1       3.097  41.744  28.908  0.00  0.00    +0.110 C 
ENDBRANCH  20  30
ENDBRANCH   1  23
TORSDOF 3
ENDMDL
MODEL 5
REMARK VINA RESULT:      -6.5      1.991     10.807
REMARK  Name = 5OXG_B4B.pdb
REMARK  3 active torsions:
REMARK  status: ('A' for Active; 'I' for Inactive)
REMARK    1  A    between atoms: _3  and  _7
REMARK    2  A    between atoms: _10  and  _13
REMARK    3  A    between atoms: _17  and  _22
REMARK                            x       y       z     vdW  Elec       q    Type
REMARK                         _______ _______ _______ _____ _____    ______ ____
ROOT
ATOM      1  C   UNL     1       8.539  36.026  28.597  0.00  0.00    +0.038 A 
ATOM      2  C   UNL     1       7.667  35.499  29.558  0.00  0.00    +0.104 A 
ATOM      3  N   UNL     1       8.113  34.572  30.467  0.00  0.00    -0.211 N 
ATOM      4  N   UNL     1       7.449  33.913  31.470  0.00  0.00    -0.162 NA
ATOM      5  C   UNL     1       8.311  33.111  32.110  0.00  0.00    +0.124 A 
ATOM      6  C   UNL     1       9.564  33.229  31.523  0.00  0.00    +0.057 A 
ATOM      7  C   UNL     1       9.383  34.180  30.475  0.00  0.00    +0.165 A 
ATOM      8  N   UNL     1      10.272  34.677  29.559  0.00  0.00    -0.225 NA
ATOM      9  C   UNL     1       9.878  35.596  28.653  0.00  0.00    +0.102 A 
ENDROOT
BRANCH   6  10
ATOM     10  C   UNL     1      10.692  32.495  31.936  0.00  0.00    +0.006 A 
ATOM     11  C   UNL     1      11.385  32.649  33.190  0.00  0.00    +0.018 A 
ATOM     12  C   UNL     1      11.028  33.636  34.175  0.00  0.00    +0.003 A 
ATOM     13  C   UNL     1      11.764  33.723  35.354  0.00  0.00    +0.021 A 
ATOM     14  C   UNL     1      12.835  32.849  35.580  0.00  0.00    +0.099 A 
ATOM     15  N   UNL     1      13.179  31.921  34.662  0.00  0.00    -0.244 NA
ATOM     16  C   UNL     1      12.461  31.825  33.480  0.00  0.00    +0.081 A 
ATOM     17  C   UNL     1      12.895  30.822  32.570  0.00  0.00    +0.019 A 
ATOM     18  C   UNL     1      12.206  30.649  31.370  0.00  0.00    +0.002 A 
ATOM     19  C   UNL     1      11.127  31.490  31.063  0.00  0.00    +0.000 A 
ENDBRANCH   6  10
BRANCH   1  23
ATOM     20  C   UNL     1       7.147  38.969  25.866  0.00  0.00    +0.048 A 
ATOM     21  C   UNL     1       7.685  37.781  25.418  0.00  0.00    +0.015 A 
ATOM     22  C   UNL     1       8.151  36.818  26.307  0.00  0.00    +0.001 A 
ATOM     23  C   UNL     1       8.105  37.013  27.686  0.00  0.00    +0.003 A 
ATOM     24  C   UNL     1       7.525  38.200  28.139  0.00  0.00    +0.001 A 
ATOM     25  C   UNL     1       7.052  39.150  27.244  0.00  0.00    +0.015 A 
BRANCH  20  30
ATOM     26  C   UNL     1       6.901  41.267  22.801  0.00  0.00    +0.110 C 
ATOM     27  N   UNL     1       6.219  42.389  23.385  0.00  0.00    -0.214 NA
ATOM     28  C   UNL     1       5.349  42.003  24.479  0.00  0.00    +0.110 C 
ATOM     29  C   UNL     1       6.023  41.086  25.496  0.00  0.00    +0.110 C 
ATOM     30  N   UNL     1       6.645  39.918  24.919  0.00  0.00    -0.305 N 
ATOM     31  C   UNL     1       7.501  40.314  23.830  0.00  0.00    +0.110 C 
ENDBRANCH  20  30
ENDBRANCH   1  23
TORSDOF 3
ENDMDL
MODEL 6
REMARK VINA RESULT:      -6.3      2.075     10.809
REMARK  Name = 5OXG_B4B.pdb
REMARK  3 active torsions:
REMARK  status: ('A' for Active; 'I' for Inactive)
REMARK    1  A    between atoms: _3  and  _7
REMARK    2  A    between atoms: _10  and  _13
REMARK    3  A    between atoms: _17  and  _22
REMARK                            x       y       z     vdW  Elec       q    Type
REMARK                         _______ _______ _______ _____ _____    ______ ____
ROOT
ATOM      1  C   UNL     1       8.736  35.970  28.551  0.00  0.00    +0.038 A 
ATOM      2  C   UNL     1       7.656  35.651  29.384  0.00  0.00    +0.104 A 
ATOM      3  N   UNL     1       7.867  35.007  30.578  0.00  0.00    -0.211 N 
ATOM      4  N   UNL     1       6.980  34.582  31.533  0.00  0.00    -0.162 NA
ATOM      5  C   UNL     1       7.659  34.016  32.539  0.00  0.00    +0.124 A 
ATOM      6  C   UNL     1       9.017  34.057  32.251  0.00  0.00    +0.057 A 
ATOM      7  C   UNL     1       9.097  34.704  30.982  0.00  0.00    +0.165 A 
ATOM      8  N   UNL     1      10.181  35.007  30.203  0.00  0.00    -0.225 NA
ATOM      9  C   UNL     1      10.021  35.646  29.025  0.00  0.00    +0.102 A 
ENDROOT
BRANCH   6  10
ATOM     10  C   UNL     1      10.009  33.516  33.090  0.00  0.00    +0.006 A 
ATOM     11  C   UNL     1      10.920  32.454  32.744  0.00  0.00    +0.018 A 
ATOM     12  C   UNL     1      10.888  31.765  31.480  0.00  0.00    +0.003 A 
ATOM     13  C   UNL     1      11.797  30.740  31.237  0.00  0.00    +0.021 A 
ATOM     14  C   UNL     1      12.742  30.392  32.212  0.00  0.00    +0.099 A 
ATOM     15  N   UNL     1      12.779  31.030  33.401  0.00  0.00    -0.244 NA
ATOM     16  C   UNL     1      11.876  32.049  33.662  0.00  0.00    +0.081 A 
ATOM     17  C   UNL     1      11.987  32.665  34.939  0.00  0.00    +0.019 A 
ATOM     18  C   UNL     1      11.129  33.714  35.264  0.00  0.00    +0.002 A 
ATOM     19  C   UNL     1      10.148  34.117  34.348  0.00  0.00    +0.000 A 
ENDBRANCH   6  10
BRANCH   1  23
ATOM     20  C   UNL     1       8.156  38.160  24.956  0.00  0.00    +0.048 A 
ATOM     21  C   UNL     1       7.083  37.728  25.706  0.00  0.00    +0.015 A 
ATOM     22  C   UNL     1       7.266  37.002  26.879  0.00  0.00    +0.001 A 
ATOM     23  C   UNL     1       8.538  36.672  27.341  0.00  0.00    +0.003 A 
ATOM     24  C   UNL     1       9.625  37.143  26.601  0.00  0.00    +0.001 A 
ATOM     25  C   UNL     1       9.431  37.876  25.439  0.00  0.00    +0.015 A 
BRANCH  20  30
ATOM     26  C   UNL     1       6.758  40.820  22.566  0.00  0.00    +0.110 C 
ATOM     27  N   UNL     1       6.687  40.053  21.353  0.00  0.00    -0.214 NA
ATOM     28  C   UNL     1       7.699  39.015  21.292  0.00  0.00    +0.110 C 
ATOM     29  C   UNL     1       7.778  38.169  22.560  0.00  0.00    +0.110 C 
ATOM     30  N   UNL     1       7.924  38.936  23.774  0.00  0.00    -0.305 N 
ATOM     31  C   UNL     1       6.918  39.966  23.820  0.00  0.00    +0.110 C 
ENDBRANCH  20  30
ENDBRANCH   1  23
TORSDOF 3
ENDMDL
MODEL 7
REMARK VINA RESULT:      -6.3      8.143     10.182
REMARK  Name = 5OXG_B4B.pdb
REMARK  3 active torsions:
REMARK  status: ('A' for Active; 'I' for Inactive)
REMARK    1  A    between atoms: _3  and  _7
REMARK    2  A    between atoms: _10  and  _13
REMARK    3  A    between atoms: _17  and  _22
REMARK                            x       y       z     vdW  Elec       q    Type
REMARK                         _______ _______ _______ _____ _____    ______ ____
ROOT
ATOM      1  C   UNL     1       6.054  40.108  23.402  0.00  0.00    +0.038 A 
ATOM      2  C   UNL     1       5.925  38.721  23.261  0.00  0.00    +0.104 A 
ATOM      3  N   UNL     1       6.496  38.075  22.192  0.00  0.00    -0.211 N 
ATOM      4  N   UNL     1       6.487  36.750  21.840  0.00  0.00    -0.162 NA
ATOM      5  C   UNL     1       7.200  36.592  20.717  0.00  0.00    +0.124 A 
ATOM      6  C   UNL     1       7.686  37.828  20.309  0.00  0.00    +0.057 A 
ATOM      7  C   UNL     1       7.208  38.745  21.290  0.00  0.00    +0.165 A 
ATOM      8  N   UNL     1       7.366  40.101  21.396  0.00  0.00    -0.225 NA
ATOM      9  C   UNL     1       6.829  40.775  22.434  0.00  0.00    +0.102 A 
ENDROOT
BRANCH   6  10
ATOM     10  C   UNL     1       8.450  38.019  19.142  0.00  0.00    +0.006 A 
ATOM     11  C   UNL     1       9.868  37.800  19.017  0.00  0.00    +0.018 A 
ATOM     12  C   UNL     1      10.706  37.397  20.117  0.00  0.00    +0.003 A 
ATOM     13  C   UNL     1      12.071  37.223  19.908  0.00  0.00    +0.021 A 
ATOM     14  C   UNL     1      12.620  37.428  18.635  0.00  0.00    +0.099 A 
ATOM     15  N   UNL     1      11.843  37.808  17.598  0.00  0.00    -0.244 NA
ATOM     16  C   UNL     1      10.483  37.992  17.790  0.00  0.00    +0.081 A 
ATOM     17  C   UNL     1       9.743  38.394  16.644  0.00  0.00    +0.019 A 
ATOM     18  C   UNL     1       8.365  38.575  16.754  0.00  0.00    +0.002 A 
ATOM     19  C   UNL     1       7.739  38.399  17.996  0.00  0.00    +0.000 A 
ENDBRANCH   6  10
BRANCH   1  23
ATOM     20  C   UNL     1       4.387  42.045  26.797  0.00  0.00    +0.048 A 
ATOM     21  C   UNL     1       3.731  42.047  25.584  0.00  0.00    +0.015 A 
ATOM     22  C   UNL     1       4.277  41.423  24.467  0.00  0.00    +0.001 A 
ATOM     23  C   UNL     1       5.511  40.779  24.519  0.00  0.00    +0.003 A 
ATOM     24  C   UNL     1       6.156  40.744  25.758  0.00  0.00    +0.001 A 
ATOM     25  C   UNL     1       5.598  41.360  26.870  0.00  0.00    +0.015 A 
BRANCH  20  30
ATOM     26  C   UNL     1       2.483  42.526  30.095  0.00  0.00    +0.110 C 
ATOM     27  N   UNL     1       1.774  43.740  29.799  0.00  0.00    -0.214 NA
ATOM     28  C   UNL     1       2.491  44.590  28.869  0.00  0.00    +0.110 C 
ATOM     29  C   UNL     1       2.997  43.848  27.635  0.00  0.00    +0.110 C 
ATOM     30  N   UNL     1       3.774  42.668  27.932  0.00  0.00    -0.305 N 
ATOM     31  C   UNL     1       3.054  41.835  28.861  0.00  0.00    +0.110 C 
ENDBRANCH  20  30
ENDBRANCH   1  23
TORSDOF 3
ENDMDL
MODEL 8
REMARK VINA RESULT:      -6.1      1.892      2.586
REMARK  Name = 5OXG_B4B.pdb
REMARK  3 active torsions:
REMARK  status: ('A' for Active; 'I' for Inactive)
REMARK    1  A    between atoms: _3  and  _7
REMARK    2  A    between atoms: _10  and  _13
REMARK    3  A    between atoms: _17  and  _22
REMARK                            x       y       z     vdW  Elec       q    Type
REMARK                         _______ _______ _______ _____ _____    ______ ____
ROOT
ATOM      1  C   UNL     1       9.022  36.302  28.314  0.00  0.00    +0.038 A 
ATOM      2  C   UNL     1       8.359  37.509  28.569  0.00  0.00    +0.104 A 
ATOM      3  N   UNL     1       7.815  38.234  27.537  0.00  0.00    -0.211 N 
ATOM      4  N   UNL     1       7.149  39.432  27.541  0.00  0.00    -0.162 NA
ATOM      5  C   UNL     1       6.789  39.735  26.287  0.00  0.00    +0.124 A 
ATOM      6  C   UNL     1       7.225  38.730  25.433  0.00  0.00    +0.057 A 
ATOM      7  C   UNL     1       7.876  37.790  26.285  0.00  0.00    +0.165 A 
ATOM      8  N   UNL     1       8.506  36.610  25.994  0.00  0.00    -0.225 NA
ATOM      9  C   UNL     1       9.048  35.862  26.978  0.00  0.00    +0.102 A 
ENDROOT
BRANCH   6  10
ATOM     10  C   UNL     1       7.037  38.756  24.038  0.00  0.00    +0.006 A 
ATOM     11  C   UNL     1       7.965  39.283  23.071  0.00  0.00    +0.018 A 
ATOM     12  C   UNL     1       9.209  39.913  23.430  0.00  0.00    +0.003 A 
ATOM     13  C   UNL     1      10.039  40.408  22.428  0.00  0.00    +0.021 A 
ATOM     14  C   UNL     1       9.669  40.283  21.083  0.00  0.00    +0.099 A 
ATOM     15  N   UNL     1       8.504  39.697  20.735  0.00  0.00    -0.244 NA
ATOM     16  C   UNL     1       7.663  39.203  21.721  0.00  0.00    +0.081 A 
ATOM     17  C   UNL     1       6.456  38.604  21.264  0.00  0.00    +0.019 A 
ATOM     18  C   UNL     1       5.571  38.063  22.196  0.00  0.00    +0.002 A 
ATOM     19  C   UNL     1       5.863  38.155  23.564  0.00  0.00    +0.000 A 
ENDBRANCH   6  10
BRANCH   1  23
ATOM     20  C   UNL     1      10.596  33.889  31.439  0.00  0.00    +0.048 A 
ATOM     21  C   UNL     1       9.263  34.238  31.413  0.00  0.00    +0.015 A 
ATOM     22  C   UNL     1       8.743  35.035  30.398  0.00  0.00    +0.001 A 
ATOM     23  C   UNL     1       9.546  35.525  29.370  0.00  0.00    +0.003 A 
ATOM     24  C   UNL     1      10.889  35.139  29.376  0.00  0.00    +0.001 A 
ATOM     25  C   UNL     1      11.395  34.334  30.387  0.00  0.00    +0.015 A 
BRANCH  20  30
ATOM     26  C   UNL     1      12.844  31.497  33.429  0.00  0.00    +0.110 C 
ATOM     27  N   UNL     1      11.845  30.655  34.027  0.00  0.00    -0.214 NA
ATOM     28  C   UNL     1      10.594  31.353  34.255  0.00  0.00    +0.110 C 
ATOM     29  C   UNL     1      10.104  32.133  33.038  0.00  0.00    +0.110 C 
ATOM     30  N   UNL     1      11.083  33.036  32.481  0.00  0.00    -0.305 N 
ATOM     31  C   UNL     1      12.322  32.334  32.265  0.00  0.00    +0.110 C 
ENDBRANCH  20  30
ENDBRANCH   1  23
TORSDOF 3
ENDMDL
MODEL 9
REMARK VINA RESULT:      -6.1      7.904     10.904
REMARK  Name = 5OXG_B4B.pdb
REMARK  3 active torsions:
REMARK  status: ('A' for Active; 'I' for Inactive)
REMARK    1  A    between atoms: _3  and  _7
REMARK    2  A    between atoms: _10  and  _13
REMARK    3  A    between atoms: _17  and  _22
REMARK                            x       y       z     vdW  Elec       q    Type
REMARK                         _______ _______ _______ _____ _____    ______ ____
ROOT
ATOM      1  C   UNL     1       5.419  40.696  24.514  0.00  0.00    +0.038 A 
ATOM      2  C   UNL     1       6.219  40.726  25.663  0.00  0.00    +0.104 A 
ATOM      3  N   UNL     1       5.768  41.334  26.808  0.00  0.00    -0.211 N 
ATOM      4  N   UNL     1       6.372  41.502  28.028  0.00  0.00    -0.162 NA
ATOM      5  C   UNL     1       5.530  42.148  28.846  0.00  0.00    +0.124 A 
ATOM      6  C   UNL     1       4.352  42.421  28.163  0.00  0.00    +0.057 A 
ATOM      7  C   UNL     1       4.555  41.877  26.861  0.00  0.00    +0.165 A 
ATOM      8  N   UNL     1       3.737  41.861  25.763  0.00  0.00    -0.225 NA
ATOM      9  C   UNL     1       4.137  41.267  24.619  0.00  0.00    +0.102 A 
ENDROOT
BRANCH   6  10
ATOM     10  C   UNL     1       3.268  43.120  28.727  0.00  0.00    +0.006 A 
ATOM     11  C   UNL     1       2.363  42.611  29.726  0.00  0.00    +0.018 A 
ATOM     12  C   UNL     1       2.433  41.269  30.245  0.00  0.00    +0.003 A 
ATOM     13  C   UNL     1       1.508  40.858  31.200  0.00  0.00    +0.021 A 
ATOM     14  C   UNL     1       0.526  41.746  31.658  0.00  0.00    +0.099 A 
ATOM     15  N   UNL     1       0.452  43.005  31.177  0.00  0.00    -0.244 NA
ATOM     16  C   UNL     1       1.361  43.430  30.221  0.00  0.00    +0.081 A 
ATOM     17  C   UNL     1       1.207  44.770  29.768  0.00  0.00    +0.019 A 
ATOM     18  C   UNL     1       2.100  45.276  28.825  0.00  0.00    +0.002 A 
ATOM     19  C   UNL     1       3.106  44.448  28.309  0.00  0.00    +0.000 A 
ENDBRANCH   6  10
BRANCH   1  23
ATOM     20  C   UNL     1       6.786  38.662  21.042  0.00  0.00    +0.048 A 
ATOM     21  C   UNL     1       7.170  39.961  21.303  0.00  0.00    +0.015 A 
ATOM     22  C   UNL     1       6.718  40.635  22.433  0.00  0.00    +0.001 A 
ATOM     23  C   UNL     1       5.852  40.034  23.344  0.00  0.00    +0.003 A 
ATOM     24  C   UNL     1       5.495  38.706  23.099  0.00  0.00    +0.001 A 
ATOM     25  C   UNL     1       5.960  38.039  21.975  0.00  0.00    +0.015 A 
BRANCH  20  30
ATOM     26  C   UNL     1       9.077  36.599  18.756  0.00  0.00    +0.110 C 
ATOM     27  N   UNL     1       8.919  37.323  17.525  0.00  0.00    -0.214 NA
ATOM     28  C   UNL     1       7.616  37.952  17.413  0.00  0.00    +0.110 C 
ATOM     29  C   UNL     1       7.216  38.741  18.656  0.00  0.00    +0.110 C 
ATOM     30  N   UNL     1       7.303  37.992  19.887  0.00  0.00    -0.305 N 
ATOM     31  C   UNL     1       8.598  37.368  19.983  0.00  0.00    +0.110 C 
ENDBRANCH  20  30
ENDBRANCH   1  23
TORSDOF 3
ENDMDL
