MODEL 1
REMARK VINA RESULT:      -6.0      0.000      0.000
REMARK  Name = 3MTF_A3F.pdb
REMARK  5 active torsions:
REMARK  status: ('A' for Active; 'I' for Inactive)
REMARK    1  A    between atoms: _14  and  _15
REMARK    2  A    between atoms: _16  and  _19
REMARK    3  A    between atoms: _17  and  _24
REMARK    4  A    between atoms: _18  and  _25
REMARK    5  A    between atoms: _20  and  _26
REMARK                            x       y       z     vdW  Elec       q    Type
REMARK                         _______ _______ _______ _____ _____    ______ ____
ROOT
ATOM      1  C   UNL     1       8.398  13.656  27.594  0.00  0.00    +0.035 A 
ATOM      2  C   UNL     1       8.202  12.596  26.735  0.00  0.00    +0.170 A 
ATOM      3  N   UNL     1       7.594  11.478  27.160  0.00  0.00    -0.226 NA
ATOM      4  C   UNL     1       7.144  11.311  28.374  0.00  0.00    +0.100 A 
ATOM      5  C   UNL     1       7.222  12.363  29.276  0.00  0.00    +0.019 A 
ATOM      6  N   UNL     1       8.730  12.656  25.518  0.00  0.00    -0.107 NA
ATOM      7  C   UNL     1       7.897  13.525  28.890  0.00  0.00    +0.004 A 
ENDROOT
BRANCH   5   8
ATOM      8  C   UNL     1       6.763  12.177  30.595  0.00  0.00    +0.005 A 
ATOM      9  C   UNL     1       6.815  13.255  31.461  0.00  0.00    +0.042 A 
ATOM     10  C   UNL     1       6.435  13.124  32.786  0.00  0.00    +0.196 A 
ATOM     11  O   UNL     1       6.519  14.214  33.588  0.00  0.00    -0.287 OA
ATOM     12  C   UNL     1       6.020  11.901  33.299  0.00  0.00    +0.042 A 
ATOM     13  C   UNL     1       6.008  10.805  32.439  0.00  0.00    +0.003 A 
ATOM     14  C   UNL     1       6.397  10.931  31.098  0.00  0.00    +0.000 A 
ENDBRANCH   5   8
BRANCH   1  19
ATOM     15  C   UNL     1      11.048  16.265  27.166  0.00  0.00    +0.175 A 
ATOM     16  C   UNL     1      10.413  17.111  26.268  0.00  0.00    +0.206 A 
ATOM     17  C   UNL     1       9.111  16.855  25.845  0.00  0.00    +0.175 A 
ATOM     18  C   UNL     1       8.445  15.718  26.284  0.00  0.00    +0.040 A 
ATOM     19  C   UNL     1       9.053  14.849  27.189  0.00  0.00    +0.009 A 
ATOM     20  C   UNL     1      10.356  15.132  27.607  0.00  0.00    +0.040 A 
BRANCH  15  22
ATOM     21  C   UNL     1      12.565  17.075  28.958  0.00  0.00    +0.253 C 
ATOM     22  O   UNL     1      12.340  16.579  27.591  0.00  0.00    -0.468 OA
ENDBRANCH  15  22
BRANCH  16  23
ATOM     23  O   UNL     1      11.039  18.219  25.784  0.00  0.00    -0.465 OA
ATOM     24  C   UNL     1      11.866  17.904  24.678  0.00  0.00    +0.253 C 
ENDBRANCH  16  23
BRANCH  17  25
ATOM     25  O   UNL     1       8.554  17.758  24.997  0.00  0.00    -0.468 OA
ATOM     26  C   UNL     1       8.027  17.232  23.771  0.00  0.00    +0.253 C 
ENDBRANCH  17  25
ENDBRANCH   1  19
TORSDOF 5
ENDMDL
MODEL 2
REMARK VINA RESULT:      -6.0      4.941      9.031
REMARK  Name = 3MTF_A3F.pdb
REMARK  5 active torsions:
REMARK  status: ('A' for Active; 'I' for Inactive)
REMARK    1  A    between atoms: _14  and  _15
REMARK    2  A    between atoms: _16  and  _19
REMARK    3  A    between atoms: _17  and  _24
REMARK    4  A    between atoms: _18  and  _25
REMARK    5  A    between atoms: _20  and  _26
REMARK                            x       y       z     vdW  Elec       q    Type
REMARK                         _______ _______ _______ _____ _____    ______ ____
ROOT
ATOM      1  C   UNL     1       8.413  16.138  21.941  0.00  0.00    +0.035 A 
ATOM      2  C   UNL     1       8.706  17.436  21.576  0.00  0.00    +0.170 A 
ATOM      3  N   UNL     1       8.251  17.937  20.419  0.00  0.00    -0.226 NA
ATOM      4  C   UNL     1       7.511  17.268  19.576  0.00  0.00    +0.100 A 
ATOM      5  C   UNL     1       7.097  15.986  19.908  0.00  0.00    +0.019 A 
ATOM      6  N   UNL     1       9.542  18.136  22.333  0.00  0.00    -0.107 NA
ATOM      7  C   UNL     1       7.594  15.407  21.079  0.00  0.00    +0.004 A 
ENDROOT
BRANCH   5   8
ATOM      8  C   UNL     1       6.322  15.250  18.989  0.00  0.00    +0.005 A 
ATOM      9  C   UNL     1       5.475  14.276  19.486  0.00  0.00    +0.042 A 
ATOM     10  C   UNL     1       4.731  13.477  18.634  0.00  0.00    +0.196 A 
ATOM     11  O   UNL     1       3.927  12.532  19.180  0.00  0.00    -0.287 OA
ATOM     12  C   UNL     1       4.832  13.605  17.254  0.00  0.00    +0.042 A 
ATOM     13  C   UNL     1       5.716  14.558  16.752  0.00  0.00    +0.003 A 
ATOM     14  C   UNL     1       6.477  15.365  17.611  0.00  0.00    +0.000 A 
ENDBRANCH   5   8
BRANCH   1  19
ATOM     15  C   UNL     1      10.544  14.209  24.339  0.00  0.00    +0.175 A 
ATOM     16  C   UNL     1       9.938  14.559  25.537  0.00  0.00    +0.206 A 
ATOM     17  C   UNL     1       8.813  15.379  25.555  0.00  0.00    +0.175 A 
ATOM     18  C   UNL     1       8.308  15.898  24.370  0.00  0.00    +0.040 A 
ATOM     19  C   UNL     1       8.890  15.564  23.148  0.00  0.00    +0.009 A 
ATOM     20  C   UNL     1      10.013  14.731  23.155  0.00  0.00    +0.040 A 
BRANCH  15  22
ATOM     21  C   UNL     1      11.501  11.950  23.954  0.00  0.00    +0.253 C 
ATOM     22  O   UNL     1      11.648  13.356  24.364  0.00  0.00    -0.468 OA
ENDBRANCH  15  22
BRANCH  16  23
ATOM     23  O   UNL     1      10.419  14.102  26.726  0.00  0.00    -0.465 OA
ATOM     24  C   UNL     1      11.485  14.908  27.196  0.00  0.00    +0.253 C 
ENDBRANCH  16  23
BRANCH  17  25
ATOM     25  O   UNL     1       8.262  15.637  26.770  0.00  0.00    -0.468 OA
ATOM     26  C   UNL     1       8.433  16.970  27.271  0.00  0.00    +0.253 C 
ENDBRANCH  17  25
ENDBRANCH   1  19
TORSDOF 5
ENDMDL
MODEL 3
REMARK VINA RESULT:      -6.0      0.943      2.662
REMARK  Name = 3MTF_A3F.pdb
REMARK  5 active torsions:
REMARK  status: ('A' for Active; 'I' for Inactive)
REMARK    1  A    between atoms: _14  and  _15
REMARK    2  A    between atoms: _16  and  _19
REMARK    3  A    between atoms: _17  and  _24
REMARK    4  A    between atoms: _18  and  _25
REMARK    5  A    between atoms: _20  and  _26
REMARK                            x       y       z     vdW  Elec       q    Type
REMARK                         _______ _______ _______ _____ _____    ______ ____
ROOT
ATOM      1  C   UNL     1       8.136  13.319  28.129  0.00  0.00    +0.035 A 
ATOM      2  C   UNL     1       7.689  12.278  27.342  0.00  0.00    +0.170 A 
ATOM      3  N   UNL     1       6.953  11.291  27.872  0.00  0.00    -0.226 NA
ATOM      4  C   UNL     1       6.601  11.239  29.129  0.00  0.00    +0.100 A 
ATOM      5  C   UNL     1       6.936  12.291  29.969  0.00  0.00    +0.019 A 
ATOM      6  N   UNL     1       8.100  12.212  26.080  0.00  0.00    -0.107 NA
ATOM      7  C   UNL     1       7.748  13.313  29.469  0.00  0.00    +0.004 A 
ENDROOT
BRANCH   5   8
ATOM      8  C   UNL     1       6.582  12.226  31.332  0.00  0.00    +0.005 A 
ATOM      9  C   UNL     1       6.755  13.361  32.104  0.00  0.00    +0.042 A 
ATOM     10  C   UNL     1       6.485  13.346  33.462  0.00  0.00    +0.196 A 
ATOM     11  O   UNL     1       6.685  14.486  34.168  0.00  0.00    -0.287 OA
ATOM     12  C   UNL     1       6.061  12.187  34.100  0.00  0.00    +0.042 A 
ATOM     13  C   UNL     1       5.926  11.033  33.331  0.00  0.00    +0.003 A 
ATOM     14  C   UNL     1       6.206  11.040  31.957  0.00  0.00    +0.000 A 
ENDBRANCH   5   8
BRANCH   1  19
ATOM     15  C   UNL     1       9.114  16.487  26.391  0.00  0.00    +0.175 A 
ATOM     16  C   UNL     1      10.460  16.540  26.720  0.00  0.00    +0.206 A 
ATOM     17  C   UNL     1      11.053  15.521  27.464  0.00  0.00    +0.175 A 
ATOM     18  C   UNL     1      10.288  14.458  27.925  0.00  0.00    +0.040 A 
ATOM     19  C   UNL     1       8.933  14.373  27.610  0.00  0.00    +0.009 A 
ATOM     20  C   UNL     1       8.363  15.402  26.854  0.00  0.00    +0.040 A 
BRANCH  15  22
ATOM     21  C   UNL     1       7.970  17.203  24.306  0.00  0.00    +0.253 C 
ATOM     22  O   UNL     1       8.568  17.511  25.614  0.00  0.00    -0.468 OA
ENDBRANCH  15  22
BRANCH  16  23
ATOM     23  O   UNL     1      11.241  17.579  26.318  0.00  0.00    -0.465 OA
ATOM     24  C   UNL     1      11.158  18.668  27.222  0.00  0.00    +0.253 C 
ENDBRANCH  16  23
BRANCH  17  25
ATOM     25  O   UNL     1      12.385  15.635  27.705  0.00  0.00    -0.468 OA
ATOM     26  C   UNL     1      12.765  15.813  29.077  0.00  0.00    +0.253 C 
ENDBRANCH  17  25
ENDBRANCH   1  19
TORSDOF 5
ENDMDL
MODEL 4
REMARK VINA RESULT:      -5.9      4.498      8.217
REMARK  Name = 3MTF_A3F.pdb
REMARK  5 active torsions:
REMARK  status: ('A' for Active; 'I' for Inactive)
REMARK    1  A    between atoms: _14  and  _15
REMARK    2  A    between atoms: _16  and  _19
REMARK    3  A    between atoms: _17  and  _24
REMARK    4  A    between atoms: _18  and  _25
REMARK    5  A    between atoms: _20  and  _26
REMARK                            x       y       z     vdW  Elec       q    Type
REMARK                         _______ _______ _______ _____ _____    ______ ____
ROOT
ATOM      1  C   UNL     1       8.684  16.025  22.290  0.00  0.00    +0.035 A 
ATOM      2  C   UNL     1       9.000  17.150  21.557  0.00  0.00    +0.170 A 
ATOM      3  N   UNL     1       8.343  17.431  20.423  0.00  0.00    -0.226 NA
ATOM      4  C   UNL     1       7.376  16.697  19.940  0.00  0.00    +0.100 A 
ATOM      5  C   UNL     1       6.936  15.596  20.663  0.00  0.00    +0.019 A 
ATOM      6  N   UNL     1      10.044  17.881  21.931  0.00  0.00    -0.107 NA
ATOM      7  C   UNL     1       7.631  15.238  21.822  0.00  0.00    +0.004 A 
ENDROOT
BRANCH   5   8
ATOM      8  C   UNL     1       5.912  14.787  20.132  0.00  0.00    +0.005 A 
ATOM      9  C   UNL     1       5.005  14.226  21.012  0.00  0.00    +0.042 A 
ATOM     10  C   UNL     1       4.011  13.372  20.564  0.00  0.00    +0.196 A 
ATOM     11  O   UNL     1       3.158  12.844  21.475  0.00  0.00    -0.287 OA
ATOM     12  C   UNL     1       3.911  13.025  19.222  0.00  0.00    +0.042 A 
ATOM     13  C   UNL     1       4.850  13.556  18.341  0.00  0.00    +0.003 A 
ATOM     14  C   UNL     1       5.863  14.416  18.791  0.00  0.00    +0.000 A 
ENDBRANCH   5   8
BRANCH   1  19
ATOM     15  C   UNL     1       9.687  15.961  25.896  0.00  0.00    +0.175 A 
ATOM     16  C   UNL     1      10.590  14.907  25.878  0.00  0.00    +0.206 A 
ATOM     17  C   UNL     1      10.903  14.256  24.687  0.00  0.00    +0.175 A 
ATOM     18  C   UNL     1      10.277  14.626  23.504  0.00  0.00    +0.040 A 
ATOM     19  C   UNL     1       9.368  15.683  23.486  0.00  0.00    +0.009 A 
ATOM     20  C   UNL     1       9.078  16.328  24.692  0.00  0.00    +0.040 A 
BRANCH  15  22
ATOM     21  C   UNL     1      10.205  17.802  27.480  0.00  0.00    +0.253 C 
ATOM     22  O   UNL     1       9.430  16.609  27.105  0.00  0.00    -0.468 OA
ENDBRANCH  15  22
BRANCH  16  23
ATOM     23  O   UNL     1      11.202  14.488  27.019  0.00  0.00    -0.465 OA
ATOM     24  C   UNL     1      10.420  13.521  27.699  0.00  0.00    +0.253 C 
ENDBRANCH  16  23
BRANCH  17  25
ATOM     25  O   UNL     1      11.827  13.262  24.757  0.00  0.00    -0.468 OA
ATOM     26  C   UNL     1      11.501  12.048  24.066  0.00  0.00    +0.253 C 
ENDBRANCH  17  25
ENDBRANCH   1  19
TORSDOF 5
ENDMDL
MODEL 5
REMARK VINA RESULT:      -5.8      3.402      8.153
REMARK  Name = 3MTF_A3F.pdb
REMARK  5 active torsions:
REMARK  status: ('A' for Active; 'I' for Inactive)
REMARK    1  A    between atoms: _14  and  _15
REMARK    2  A    between atoms: _16  and  _19
REMARK    3  A    between atoms: _17  and  _24
REMARK    4  A    between atoms: _18  and  _25
REMARK    5  A    between atoms: _20  and  _26
REMARK                            x       y       z     vdW  Elec       q    Type
REMARK                         _______ _______ _______ _____ _____    ______ ____
ROOT
ATOM      1  C   UNL     1       9.445  16.589  25.518  0.00  0.00    +0.035 A 
ATOM      2  C   UNL     1      10.087  17.804  25.631  0.00  0.00    +0.170 A 
ATOM      3  N   UNL     1      10.021  18.704  24.639  0.00  0.00    -0.226 NA
ATOM      4  C   UNL     1       9.359  18.517  23.529  0.00  0.00    +0.100 A 
ATOM      5  C   UNL     1       8.613  17.357  23.373  0.00  0.00    +0.019 A 
ATOM      6  N   UNL     1      10.865  18.018  26.686  0.00  0.00    -0.107 NA
ATOM      7  C   UNL     1       8.699  16.371  24.359  0.00  0.00    +0.004 A 
ENDROOT
BRANCH   5   8
ATOM      8  C   UNL     1       7.921  17.139  22.165  0.00  0.00    +0.005 A 
ATOM      9  C   UNL     1       6.690  16.511  22.225  0.00  0.00    +0.042 A 
ATOM     10  C   UNL     1       5.985  16.212  21.072  0.00  0.00    +0.196 A 
ATOM     11  O   UNL     1       4.789  15.585  21.194  0.00  0.00    -0.287 OA
ATOM     12  C   UNL     1       6.502  16.504  19.815  0.00  0.00    +0.042 A 
ATOM     13  C   UNL     1       7.760  17.099  19.752  0.00  0.00    +0.003 A 
ATOM     14  C   UNL     1       8.481  17.397  20.917  0.00  0.00    +0.000 A 
ENDBRANCH   5   8
BRANCH   1  19
ATOM     15  C   UNL     1       8.369  14.107  28.107  0.00  0.00    +0.175 A 
ATOM     16  C   UNL     1       9.596  13.545  28.429  0.00  0.00    +0.206 A 
ATOM     17  C   UNL     1      10.770  14.009  27.839  0.00  0.00    +0.175 A 
ATOM     18  C   UNL     1      10.721  15.014  26.882  0.00  0.00    +0.040 A 
ATOM     19  C   UNL     1       9.505  15.602  26.538  0.00  0.00    +0.009 A 
ATOM     20  C   UNL     1       8.342  15.128  27.150  0.00  0.00    +0.040 A 
BRANCH  15  22
ATOM     21  C   UNL     1       6.450  12.531  28.159  0.00  0.00    +0.253 C 
ATOM     22  O   UNL     1       7.221  13.638  28.748  0.00  0.00    -0.468 OA
ENDBRANCH  15  22
BRANCH  16  23
ATOM     23  O   UNL     1       9.688  12.535  29.336  0.00  0.00    -0.465 OA
ATOM     24  C   UNL     1       9.754  13.034  30.660  0.00  0.00    +0.253 C 
ENDBRANCH  16  23
BRANCH  17  25
ATOM     25  O   UNL     1      11.929  13.427  28.244  0.00  0.00    -0.468 OA
ATOM     26  C   UNL     1      13.125  14.192  28.037  0.00  0.00    +0.253 C 
ENDBRANCH  17  25
ENDBRANCH   1  19
TORSDOF 5
ENDMDL
MODEL 6
REMARK VINA RESULT:      -5.8      5.053      6.576
REMARK  Name = 3MTF_A3F.pdb
REMARK  5 active torsions:
REMARK  status: ('A' for Active; 'I' for Inactive)
REMARK    1  A    between atoms: _14  and  _15
REMARK    2  A    between atoms: _16  and  _19
REMARK    3  A    between atoms: _17  and  _24
REMARK    4  A    between atoms: _18  and  _25
REMARK    5  A    between atoms: _20  and  _26
REMARK                            x       y       z     vdW  Elec       q    Type
REMARK                         _______ _______ _______ _____ _____    ______ ____
ROOT
ATOM      1  C   UNL     1       9.895  14.422  24.252  0.00  0.00    +0.035 A 
ATOM      2  C   UNL     1      10.387  13.133  24.238  0.00  0.00    +0.170 A 
ATOM      3  N   UNL     1      11.281  12.736  25.155  0.00  0.00    -0.226 NA
ATOM      4  C   UNL     1      11.736  13.504  26.109  0.00  0.00    +0.100 A 
ATOM      5  C   UNL     1      11.226  14.787  26.246  0.00  0.00    +0.019 A 
ATOM      6  N   UNL     1      10.050  12.333  23.234  0.00  0.00    -0.107 NA
ATOM      7  C   UNL     1      10.333  15.258  25.279  0.00  0.00    +0.004 A 
ENDROOT
BRANCH   5   8
ATOM      8  C   UNL     1      11.735  15.628  27.256  0.00  0.00    +0.005 A 
ATOM      9  C   UNL     1      12.531  15.061  28.235  0.00  0.00    +0.042 A 
ATOM     10  C   UNL     1      13.013  15.818  29.289  0.00  0.00    +0.196 A 
ATOM     11  O   UNL     1      13.778  15.204  30.224  0.00  0.00    -0.287 OA
ATOM     12  C   UNL     1      12.689  17.164  29.417  0.00  0.00    +0.042 A 
ATOM     13  C   UNL     1      11.853  17.726  28.455  0.00  0.00    +0.003 A 
ATOM     14  C   UNL     1      11.357  16.961  27.389  0.00  0.00    +0.000 A 
ENDBRANCH   5   8
BRANCH   1  19
ATOM     15  C   UNL     1       6.682  14.930  22.398  0.00  0.00    +0.175 A 
ATOM     16  C   UNL     1       7.073  15.913  21.501  0.00  0.00    +0.206 A 
ATOM     17  C   UNL     1       8.388  16.370  21.471  0.00  0.00    +0.175 A 
ATOM     18  C   UNL     1       9.319  15.877  22.375  0.00  0.00    +0.040 A 
ATOM     19  C   UNL     1       8.961  14.886  23.288  0.00  0.00    +0.009 A 
ATOM     20  C   UNL     1       7.638  14.436  23.292  0.00  0.00    +0.040 A 
BRANCH  15  22
ATOM     21  C   UNL     1       5.070  13.089  21.971  0.00  0.00    +0.253 C 
ATOM     22  O   UNL     1       5.363  14.475  22.370  0.00  0.00    -0.468 OA
ENDBRANCH  15  22
BRANCH  16  23
ATOM     23  O   UNL     1       6.186  16.450  20.619  0.00  0.00    -0.465 OA
ATOM     24  C   UNL     1       6.142  15.707  19.413  0.00  0.00    +0.253 C 
ENDBRANCH  16  23
BRANCH  17  25
ATOM     25  O   UNL     1       8.690  17.305  20.533  0.00  0.00    -0.468 OA
ATOM     26  C   UNL     1       8.950  18.629  21.022  0.00  0.00    +0.253 C 
ENDBRANCH  17  25
ENDBRANCH   1  19
TORSDOF 5
ENDMDL
MODEL 7
REMARK VINA RESULT:      -5.7      4.965      9.334
REMARK  Name = 3MTF_A3F.pdb
REMARK  5 active torsions:
REMARK  status: ('A' for Active; 'I' for Inactive)
REMARK    1  A    between atoms: _14  and  _15
REMARK    2  A    between atoms: _16  and  _19
REMARK    3  A    between atoms: _17  and  _24
REMARK    4  A    between atoms: _18  and  _25
REMARK    5  A    between atoms: _20  and  _26
REMARK                            x       y       z     vdW  Elec       q    Type
REMARK                         _______ _______ _______ _____ _____    ______ ____
ROOT
ATOM      1  C   UNL     1       8.292  16.163  22.015  0.00  0.00    +0.035 A 
ATOM      2  C   UNL     1       8.641  17.434  21.608  0.00  0.00    +0.170 A 
ATOM      3  N   UNL     1       8.289  17.880  20.393  0.00  0.00    -0.226 NA
ATOM      4  C   UNL     1       7.602  17.180  19.531  0.00  0.00    +0.100 A 
ATOM      5  C   UNL     1       7.136  15.925  19.895  0.00  0.00    +0.019 A 
ATOM      6  N   UNL     1       9.430  18.159  22.391  0.00  0.00    -0.107 NA
ATOM      7  C   UNL     1       7.527  15.401  21.131  0.00  0.00    +0.004 A 
ENDROOT
BRANCH   5   8
ATOM      8  C   UNL     1       6.420  15.156  18.957  0.00  0.00    +0.005 A 
ATOM      9  C   UNL     1       6.498  15.516  17.624  0.00  0.00    +0.042 A 
ATOM     10  C   UNL     1       5.771  14.840  16.659  0.00  0.00    +0.196 A 
ATOM     11  O   UNL     1       5.880  15.246  15.370  0.00  0.00    -0.287 OA
ATOM     12  C   UNL     1       4.916  13.799  16.999  0.00  0.00    +0.042 A 
ATOM     13  C   UNL     1       4.804  13.462  18.346  0.00  0.00    +0.003 A 
ATOM     14  C   UNL     1       5.533  14.149  19.328  0.00  0.00    +0.000 A 
ENDBRANCH   5   8
BRANCH   1  19
ATOM     15  C   UNL     1       8.559  15.760  25.727  0.00  0.00    +0.175 A 
ATOM     16  C   UNL     1       9.239  14.553  25.792  0.00  0.00    +0.206 A 
ATOM     17  C   UNL     1       9.649  13.901  24.630  0.00  0.00    +0.175 A 
ATOM     18  C   UNL     1       9.339  14.433  23.385  0.00  0.00    +0.040 A 
ATOM     19  C   UNL     1       8.660  15.646  23.285  0.00  0.00    +0.009 A 
ATOM     20  C   UNL     1       8.269  16.287  24.464  0.00  0.00    +0.040 A 
BRANCH  15  22
ATOM     21  C   UNL     1       9.017  17.505  27.435  0.00  0.00    +0.253 C 
ATOM     22  O   UNL     1       8.199  16.397  26.916  0.00  0.00    -0.468 OA
ENDBRANCH  15  22
BRANCH  16  23
ATOM     23  O   UNL     1       9.535  13.977  26.989  0.00  0.00    -0.465 OA
ATOM     24  C   UNL     1      10.810  14.382  27.457  0.00  0.00    +0.253 C 
ENDBRANCH  16  23
BRANCH  17  25
ATOM     25  O   UNL     1      10.344  12.745  24.790  0.00  0.00    -0.468 OA
ATOM     26  C   UNL     1      11.630  12.689  24.156  0.00  0.00    +0.253 C 
ENDBRANCH  17  25
ENDBRANCH   1  19
TORSDOF 5
ENDMDL
MODEL 8
REMARK VINA RESULT:      -5.7      3.459      7.870
REMARK  Name = 3MTF_A3F.pdb
REMARK  5 active torsions:
REMARK  status: ('A' for Active; 'I' for Inactive)
REMARK    1  A    between atoms: _14  and  _15
REMARK    2  A    between atoms: _16  and  _19
REMARK    3  A    between atoms: _17  and  _24
REMARK    4  A    between atoms: _18  and  _25
REMARK    5  A    between atoms: _20  and  _26
REMARK                            x       y       z     vdW  Elec       q    Type
REMARK                         _______ _______ _______ _____ _____    ______ ____
ROOT
ATOM      1  C   UNL     1       9.399  16.490  25.444  0.00  0.00    +0.035 A 
ATOM      2  C   UNL     1      10.007  17.723  25.553  0.00  0.00    +0.170 A 
ATOM      3  N   UNL     1       9.921  18.615  24.556  0.00  0.00    -0.226 NA
ATOM      4  C   UNL     1       9.269  18.404  23.444  0.00  0.00    +0.100 A 
ATOM      5  C   UNL     1       8.555  17.224  23.291  0.00  0.00    +0.019 A 
ATOM      6  N   UNL     1      10.776  17.963  26.609  0.00  0.00    -0.107 NA
ATOM      7  C   UNL     1       8.663  16.246  24.283  0.00  0.00    +0.004 A 
ENDROOT
BRANCH   5   8
ATOM      8  C   UNL     1       7.874  16.981  22.082  0.00  0.00    +0.005 A 
ATOM      9  C   UNL     1       6.582  16.491  22.151  0.00  0.00    +0.042 A 
ATOM     10  C   UNL     1       5.878  16.174  21.001  0.00  0.00    +0.196 A 
ATOM     11  O   UNL     1       4.620  15.686  21.133  0.00  0.00    -0.287 OA
ATOM     12  C   UNL     1       6.454  16.307  19.744  0.00  0.00    +0.042 A 
ATOM     13  C   UNL     1       7.770  16.761  19.675  0.00  0.00    +0.003 A 
ATOM     14  C   UNL     1       8.489  17.077  20.837  0.00  0.00    +0.000 A 
ENDBRANCH   5   8
BRANCH   1  19
ATOM     15  C   UNL     1      10.831  14.101  27.946  0.00  0.00    +0.175 A 
ATOM     16  C   UNL     1       9.671  13.705  28.595  0.00  0.00    +0.206 A 
ATOM     17  C   UNL     1       8.426  14.180  28.185  0.00  0.00    +0.175 A 
ATOM     18  C   UNL     1       8.336  15.095  27.145  0.00  0.00    +0.040 A 
ATOM     19  C   UNL     1       9.482  15.511  26.469  0.00  0.00    +0.009 A 
ATOM     20  C   UNL     1      10.718  15.014  26.891  0.00  0.00    +0.040 A 
BRANCH  15  22
ATOM     21  C   UNL     1      13.298  14.323  28.129  0.00  0.00    +0.253 C 
ATOM     22  O   UNL     1      12.053  13.574  28.365  0.00  0.00    -0.468 OA
ENDBRANCH  15  22
BRANCH  16  23
ATOM     23  O   UNL     1       9.714  12.836  29.642  0.00  0.00    -0.465 OA
ATOM     24  C   UNL     1       9.740  11.492  29.196  0.00  0.00    +0.253 C 
ENDBRANCH  16  23
BRANCH  17  25
ATOM     25  O   UNL     1       7.341  13.707  28.853  0.00  0.00    -0.468 OA
ATOM     26  C   UNL     1       6.559  12.719  28.168  0.00  0.00    +0.253 C 
ENDBRANCH  17  25
ENDBRANCH   1  19
TORSDOF 5
ENDMDL
MODEL 9
REMARK VINA RESULT:      -5.7      2.877      4.799
REMARK  Name = 3MTF_A3F.pdb
REMARK  5 active torsions:
REMARK  status: ('A' for Active; 'I' for Inactive)
REMARK    1  A    between atoms: _14  and  _15
REMARK    2  A    between atoms: _16  and  _19
REMARK    3  A    between atoms: _17  and  _24
REMARK    4  A    between atoms: _18  and  _25
REMARK    5  A    between atoms: _20  and  _26
REMARK                            x       y       z     vdW  Elec       q    Type
REMARK                         _______ _______ _______ _____ _____    ______ ____
ROOT
ATOM      1  C   UNL     1       9.370  14.413  25.381  0.00  0.00    +0.035 A 
ATOM      2  C   UNL     1      10.733  14.212  25.326  0.00  0.00    +0.170 A 
ATOM      3  N   UNL     1      11.404  13.793  26.408  0.00  0.00    -0.226 NA
ATOM      4  C   UNL     1      10.843  13.537  27.559  0.00  0.00    +0.100 A 
ATOM      5  C   UNL     1       9.462  13.629  27.674  0.00  0.00    +0.019 A 
ATOM      6  N   UNL     1      11.383  14.556  24.220  0.00  0.00    -0.107 NA
ATOM      7  C   UNL     1       8.733  14.115  26.586  0.00  0.00    +0.004 A 
ENDROOT
BRANCH   5   8
ATOM      8  C   UNL     1       8.856  13.381  28.922  0.00  0.00    +0.005 A 
ATOM      9  C   UNL     1       9.676  13.105  30.001  0.00  0.00    +0.042 A 
ATOM     10  C   UNL     1       9.143  12.793  31.240  0.00  0.00    +0.196 A 
ATOM     11  O   UNL     1       9.997  12.520  32.256  0.00  0.00    -0.287 OA
ATOM     12  C   UNL     1       7.769  12.717  31.435  0.00  0.00    +0.042 A 
ATOM     13  C   UNL     1       6.943  12.954  30.339  0.00  0.00    +0.003 A 
ATOM     14  C   UNL     1       7.478  13.263  29.080  0.00  0.00    +0.000 A 
ENDBRANCH   5   8
BRANCH   1  19
ATOM     15  C   UNL     1       7.252  14.401  22.294  0.00  0.00    +0.175 A 
ATOM     16  C   UNL     1       7.023  15.762  22.151  0.00  0.00    +0.206 A 
ATOM     17  C   UNL     1       7.598  16.678  23.030  0.00  0.00    +0.175 A 
ATOM     18  C   UNL     1       8.373  16.234  24.092  0.00  0.00    +0.040 A 
ATOM     19  C   UNL     1       8.626  14.874  24.263  0.00  0.00    +0.009 A 
ATOM     20  C   UNL     1       8.047  13.974  23.362  0.00  0.00    +0.040 A 
BRANCH  15  22
ATOM     21  C   UNL     1       5.746  12.483  21.822  0.00  0.00    +0.253 C 
ATOM     22  O   UNL     1       6.687  13.520  21.370  0.00  0.00    -0.468 OA
ENDBRANCH  15  22
BRANCH  16  23
ATOM     23  O   UNL     1       6.242  16.240  21.144  0.00  0.00    -0.465 OA
ATOM     24  C   UNL     1       4.870  16.206  21.495  0.00  0.00    +0.253 C 
ENDBRANCH  16  23
BRANCH  17  25
ATOM     25  O   UNL     1       7.352  17.992  22.790  0.00  0.00    -0.468 OA
ATOM     26  C   UNL     1       8.475  18.777  22.363  0.00  0.00    +0.253 C 
ENDBRANCH  17  25
ENDBRANCH   1  19
TORSDOF 5
ENDMDL
