MODEL 1
REMARK VINA RESULT:      -6.9      0.000      0.000
REMARK  Name = 3Q4U_LDN.pdb
REMARK  3 active torsions:
REMARK  status: ('A' for Active; 'I' for Inactive)
REMARK    1  A    between atoms: _18  and  _19
REMARK    2  A    between atoms: _20  and  _30
REMARK    3  A    between atoms: _21  and  _22
REMARK                            x       y       z     vdW  Elec       q    Type
REMARK                         _______ _______ _______ _____ _____    ______ ____
ROOT
ATOM      1  C   UNL     1       8.988  38.213  25.970  0.00  0.00    +0.057 A 
ATOM      2  C   UNL     1       8.966  37.230  26.943  0.00  0.00    +0.165 A 
ATOM      3  N   UNL     1      10.326  36.856  27.158  0.00  0.00    -0.211 N 
ATOM      4  N   UNL     1      11.045  37.518  26.395  0.00  0.00    -0.162 NA
ATOM      5  C   UNL     1      10.642  35.894  28.086  0.00  0.00    +0.104 A 
ATOM      6  C   UNL     1       9.624  35.274  28.788  0.00  0.00    +0.038 A 
ATOM      7  C   UNL     1       8.304  35.687  28.579  0.00  0.00    +0.102 A 
ATOM      8  N   UNL     1       7.973  36.620  27.633  0.00  0.00    -0.225 NA
ATOM      9  C   UNL     1      10.265  38.349  25.662  0.00  0.00    +0.124 A 
ENDROOT
BRANCH   1  14
ATOM     10  C   UNL     1       5.834  37.873  21.812  0.00  0.00    +0.002 A 
ATOM     11  C   UNL     1       5.442  38.976  22.549  0.00  0.00    +0.019 A 
ATOM     12  C   UNL     1       6.087  39.338  23.729  0.00  0.00    +0.081 A 
ATOM     13  C   UNL     1       7.178  38.562  24.186  0.00  0.00    +0.018 A 
ATOM     14  C   UNL     1       7.861  38.928  25.383  0.00  0.00    +0.008 A 
ATOM     15  C   UNL     1       7.335  40.004  26.076  0.00  0.00    +0.021 A 
ATOM     16  C   UNL     1       6.254  40.753  25.570  0.00  0.00    +0.099 A 
ATOM     17  C   UNL     1       7.570  37.477  23.413  0.00  0.00    +0.001 A 
ATOM     18  N   UNL     1       5.647  40.388  24.436  0.00  0.00    -0.244 NA
ATOM     19  C   UNL     1       6.911  37.105  22.242  0.00  0.00    +0.000 A 
ENDBRANCH   1  14
BRANCH   6  20
ATOM     20  C   UNL     1       9.984  34.333  29.775  0.00  0.00    +0.003 A 
ATOM     21  C   UNL     1      11.285  33.816  29.865  0.00  0.00    +0.001 A 
ATOM     22  C   UNL     1      11.594  32.932  30.914  0.00  0.00    +0.015 A 
ATOM     23  C   UNL     1      10.649  32.551  31.845  0.00  0.00    +0.048 A 
ATOM     24  C   UNL     1       9.371  33.068  31.753  0.00  0.00    +0.015 A 
ATOM     25  C   UNL     1       9.060  33.978  30.744  0.00  0.00    +0.001 A 
BRANCH  23  26
ATOM     26  N   UNL     1      10.926  31.678  32.947  0.00  0.00    -0.305 N 
ATOM     27  C   UNL     1      10.088  31.710  34.154  0.00  0.00    +0.110 C 
ATOM     28  C   UNL     1      10.405  30.585  35.178  0.00  0.00    +0.110 C 
ATOM     29  N   UNL     1      11.858  30.390  35.406  0.00  0.00    -0.214 NA
ATOM     30  C   UNL     1      12.697  31.167  34.465  0.00  0.00    +0.110 C 
ATOM     31  C   UNL     1      12.211  30.978  33.036  0.00  0.00    +0.110 C 
ENDBRANCH  23  26
ENDBRANCH   6  20
TORSDOF 3
ENDMDL
MODEL 2
REMARK VINA RESULT:      -6.9      0.897      2.412
REMARK  Name = 3Q4U_LDN.pdb
REMARK  3 active torsions:
REMARK  status: ('A' for Active; 'I' for Inactive)
REMARK    1  A    between atoms: _18  and  _19
REMARK    2  A    between atoms: _20  and  _30
REMARK    3  A    between atoms: _21  and  _22
REMARK                            x       y       z     vdW  Elec       q    Type
REMARK                         _______ _______ _______ _____ _____    ______ ____
ROOT
ATOM      1  C   UNL     1       8.684  37.914  25.613  0.00  0.00    +0.057 A 
ATOM      2  C   UNL     1       8.603  37.081  26.714  0.00  0.00    +0.165 A 
ATOM      3  N   UNL     1       9.941  36.895  27.169  0.00  0.00    -0.211 N 
ATOM      4  N   UNL     1      10.706  37.521  26.420  0.00  0.00    -0.162 NA
ATOM      5  C   UNL     1      10.198  36.113  28.269  0.00  0.00    +0.104 A 
ATOM      6  C   UNL     1       9.145  35.486  28.912  0.00  0.00    +0.038 A 
ATOM      7  C   UNL     1       7.840  35.715  28.461  0.00  0.00    +0.102 A 
ATOM      8  N   UNL     1       7.575  36.464  27.346  0.00  0.00    -0.225 NA
ATOM      9  C   UNL     1       9.975  38.149  25.467  0.00  0.00    +0.124 A 
ENDROOT
BRANCH   1  14
ATOM     10  C   UNL     1       5.146  41.765  25.607  0.00  0.00    +0.002 A 
ATOM     11  C   UNL     1       4.971  41.030  24.449  0.00  0.00    +0.019 A 
ATOM     12  C   UNL     1       5.768  39.929  24.150  0.00  0.00    +0.081 A 
ATOM     13  C   UNL     1       6.784  39.545  25.056  0.00  0.00    +0.018 A 
ATOM     14  C   UNL     1       7.600  38.410  24.774  0.00  0.00    +0.008 A 
ATOM     15  C   UNL     1       7.383  37.796  23.553  0.00  0.00    +0.021 A 
ATOM     16  C   UNL     1       6.348  38.210  22.690  0.00  0.00    +0.099 A 
ATOM     17  C   UNL     1       6.921  40.282  26.225  0.00  0.00    +0.001 A 
ATOM     18  N   UNL     1       5.594  39.270  22.995  0.00  0.00    -0.244 NA
ATOM     19  C   UNL     1       6.133  41.396  26.514  0.00  0.00    +0.000 A 
ENDBRANCH   1  14
BRANCH   6  20
ATOM     20  C   UNL     1       9.433  34.738  30.071  0.00  0.00    +0.003 A 
ATOM     21  C   UNL     1       8.434  34.045  30.772  0.00  0.00    +0.001 A 
ATOM     22  C   UNL     1       8.801  33.264  31.883  0.00  0.00    +0.015 A 
ATOM     23  C   UNL     1      10.110  33.175  32.308  0.00  0.00    +0.048 A 
ATOM     24  C   UNL     1      11.089  33.857  31.610  0.00  0.00    +0.015 A 
ATOM     25  C   UNL     1      10.748  34.601  30.482  0.00  0.00    +0.001 A 
BRANCH  23  26
ATOM     26  N   UNL     1      10.534  32.369  33.414  0.00  0.00    -0.305 N 
ATOM     27  C   UNL     1      11.712  31.498  33.296  0.00  0.00    +0.110 C 
ATOM     28  C   UNL     1      12.144  30.830  34.630  0.00  0.00    +0.110 C 
ATOM     29  N   UNL     1      11.008  30.277  35.407  0.00  0.00    -0.214 NA
ATOM     30  C   UNL     1       9.691  30.654  34.847  0.00  0.00    +0.110 C 
ATOM     31  C   UNL     1       9.642  32.147  34.556  0.00  0.00    +0.110 C 
ENDBRANCH  23  26
ENDBRANCH   6  20
TORSDOF 3
ENDMDL
MODEL 3
REMARK VINA RESULT:      -6.7      9.329     15.555
REMARK  Name = 3Q4U_LDN.pdb
REMARK  3 active torsions:
REMARK  status: ('A' for Active; 'I' for Inactive)
REMARK    1  A    between atoms: _18  and  _19
REMARK    2  A    between atoms: _20  and  _30
REMARK    3  A    between atoms: _21  and  _22
REMARK                            x       y       z     vdW  Elec       q    Type
REMARK                         _______ _______ _______ _____ _____    ______ ____
ROOT
ATOM      1  C   UNL     1       1.159  25.869  36.578  0.00  0.00    +0.057 A 
ATOM      2  C   UNL     1       1.575  26.881  35.731  0.00  0.00    +0.165 A 
ATOM      3  N   UNL     1       1.157  28.102  36.338  0.00  0.00    -0.211 N 
ATOM      4  N   UNL     1       0.558  27.837  37.391  0.00  0.00    -0.162 NA
ATOM      5  C   UNL     1       1.432  29.306  35.737  0.00  0.00    +0.104 A 
ATOM      6  C   UNL     1       2.095  29.318  34.522  0.00  0.00    +0.038 A 
ATOM      7  C   UNL     1       2.521  28.105  33.969  0.00  0.00    +0.102 A 
ATOM      8  N   UNL     1       2.222  26.897  34.541  0.00  0.00    -0.225 NA
ATOM      9  C   UNL     1       0.542  26.493  37.564  0.00  0.00    +0.124 A 
ENDROOT
BRANCH   1  14
ATOM     10  C   UNL     1       5.013  22.335  36.577  0.00  0.00    +0.002 A 
ATOM     11  C   UNL     1       3.824  21.661  36.370  0.00  0.00    +0.019 A 
ATOM     12  C   UNL     1       2.602  22.326  36.320  0.00  0.00    +0.081 A 
ATOM     13  C   UNL     1       2.573  23.731  36.482  0.00  0.00    +0.018 A 
ATOM     14  C   UNL     1       1.332  24.431  36.418  0.00  0.00    +0.008 A 
ATOM     15  C   UNL     1       0.200  23.646  36.279  0.00  0.00    +0.021 A 
ATOM     16  C   UNL     1       0.284  22.250  36.110  0.00  0.00    +0.099 A 
ATOM     17  C   UNL     1       3.783  24.387  36.661  0.00  0.00    +0.001 A 
ATOM     18  N   UNL     1       1.467  21.630  36.161  0.00  0.00    -0.244 NA
ATOM     19  C   UNL     1       5.004  23.717  36.728  0.00  0.00    +0.000 A 
ENDBRANCH   1  14
BRANCH   6  20
ATOM     20  C   UNL     1       2.415  30.569  33.959  0.00  0.00    +0.003 A 
ATOM     21  C   UNL     1       3.727  30.899  33.586  0.00  0.00    +0.001 A 
ATOM     22  C   UNL     1       3.967  32.140  32.969  0.00  0.00    +0.015 A 
ATOM     23  C   UNL     1       2.951  33.043  32.734  0.00  0.00    +0.048 A 
ATOM     24  C   UNL     1       1.660  32.710  33.100  0.00  0.00    +0.015 A 
ATOM     25  C   UNL     1       1.399  31.467  33.675  0.00  0.00    +0.001 A 
BRANCH  23  26
ATOM     26  N   UNL     1       3.142  34.304  32.082  0.00  0.00    -0.305 N 
ATOM     27  C   UNL     1       4.392  35.057  32.263  0.00  0.00    +0.110 C 
ATOM     28  C   UNL     1       4.517  36.309  31.352  0.00  0.00    +0.110 C 
ATOM     29  N   UNL     1       3.277  37.121  31.297  0.00  0.00    -0.214 NA
ATOM     30  C   UNL     1       2.127  36.462  31.956  0.00  0.00    +0.110 C 
ATOM     31  C   UNL     1       2.004  35.017  31.495  0.00  0.00    +0.110 C 
ENDBRANCH  23  26
ENDBRANCH   6  20
TORSDOF 3
ENDMDL
MODEL 4
REMARK VINA RESULT:      -6.6      1.926     10.560
REMARK  Name = 3Q4U_LDN.pdb
REMARK  3 active torsions:
REMARK  status: ('A' for Active; 'I' for Inactive)
REMARK    1  A    between atoms: _18  and  _19
REMARK    2  A    between atoms: _20  and  _30
REMARK    3  A    between atoms: _21  and  _22
REMARK                            x       y       z     vdW  Elec       q    Type
REMARK                         _______ _______ _______ _____ _____    ______ ____
ROOT
ATOM      1  C   UNL     1       9.228  34.243  31.697  0.00  0.00    +0.057 A 
ATOM      2  C   UNL     1       9.382  34.886  30.481  0.00  0.00    +0.165 A 
ATOM      3  N   UNL     1       8.066  35.206  30.033  0.00  0.00    -0.211 N 
ATOM      4  N   UNL     1       7.250  34.788  30.868  0.00  0.00    -0.162 NA
ATOM      5  C   UNL     1       7.880  35.866  28.843  0.00  0.00    +0.104 A 
ATOM      6  C   UNL     1       8.983  36.191  28.072  0.00  0.00    +0.038 A 
ATOM      7  C   UNL     1      10.262  35.893  28.556  0.00  0.00    +0.102 A 
ATOM      8  N   UNL     1      10.458  35.205  29.723  0.00  0.00    -0.225 NA
ATOM      9  C   UNL     1       7.921  34.199  31.887  0.00  0.00    +0.124 A 
ENDROOT
BRANCH   1  14
ATOM     10  C   UNL     1      12.630  30.274  31.799  0.00  0.00    +0.002 A 
ATOM     11  C   UNL     1      12.804  31.008  32.959  0.00  0.00    +0.019 A 
ATOM     12  C   UNL     1      12.043  32.142  33.231  0.00  0.00    +0.081 A 
ATOM     13  C   UNL     1      11.061  32.555  32.300  0.00  0.00    +0.018 A 
ATOM     14  C   UNL     1      10.262  33.705  32.571  0.00  0.00    +0.008 A 
ATOM     15  C   UNL     1      10.574  34.402  33.725  0.00  0.00    +0.021 A 
ATOM     16  C   UNL     1      11.554  33.940  34.626  0.00  0.00    +0.099 A 
ATOM     17  C   UNL     1      10.887  31.785  31.158  0.00  0.00    +0.001 A 
ATOM     18  N   UNL     1      12.274  32.850  34.346  0.00  0.00    -0.244 NA
ATOM     19  C   UNL     1      11.663  30.660  30.878  0.00  0.00    +0.000 A 
ENDBRANCH   1  14
BRANCH   6  20
ATOM     20  C   UNL     1       8.764  36.920  26.886  0.00  0.00    +0.003 A 
ATOM     21  C   UNL     1       9.824  37.481  26.156  0.00  0.00    +0.001 A 
ATOM     22  C   UNL     1       9.541  38.139  24.945  0.00  0.00    +0.015 A 
ATOM     23  C   UNL     1       8.253  38.259  24.467  0.00  0.00    +0.048 A 
ATOM     24  C   UNL     1       7.215  37.701  25.189  0.00  0.00    +0.015 A 
ATOM     25  C   UNL     1       7.483  37.009  26.369  0.00  0.00    +0.001 A 
BRANCH  23  26
ATOM     26  N   UNL     1       7.922  38.893  23.226  0.00  0.00    -0.305 N 
ATOM     27  C   UNL     1       6.916  39.963  23.179  0.00  0.00    +0.110 C 
ATOM     28  C   UNL     1       6.801  40.668  21.799  0.00  0.00    +0.110 C 
ATOM     29  N   UNL     1       6.792  39.723  20.655  0.00  0.00    -0.214 NA
ATOM     30  C   UNL     1       7.096  38.331  21.057  0.00  0.00    +0.110 C 
ATOM     31  C   UNL     1       8.325  38.290  21.952  0.00  0.00    +0.110 C 
ENDBRANCH  23  26
ENDBRANCH   6  20
TORSDOF 3
ENDMDL
MODEL 5
REMARK VINA RESULT:      -6.4      2.356      4.363
REMARK  Name = 3Q4U_LDN.pdb
REMARK  3 active torsions:
REMARK  status: ('A' for Active; 'I' for Inactive)
REMARK    1  A    between atoms: _18  and  _19
REMARK    2  A    between atoms: _20  and  _30
REMARK    3  A    between atoms: _21  and  _22
REMARK                            x       y       z     vdW  Elec       q    Type
REMARK                         _______ _______ _______ _____ _____    ______ ____
ROOT
ATOM      1  C   UNL     1       6.267  40.127  24.052  0.00  0.00    +0.057 A 
ATOM      2  C   UNL     1       6.808  39.487  25.153  0.00  0.00    +0.165 A 
ATOM      3  N   UNL     1       6.816  38.096  24.838  0.00  0.00    -0.211 N 
ATOM      4  N   UNL     1       6.325  37.942  23.709  0.00  0.00    -0.162 NA
ATOM      5  C   UNL     1       7.309  37.184  25.739  0.00  0.00    +0.104 A 
ATOM      6  C   UNL     1       7.771  37.628  26.965  0.00  0.00    +0.038 A 
ATOM      7  C   UNL     1       7.781  39.002  27.230  0.00  0.00    +0.102 A 
ATOM      8  N   UNL     1       7.260  39.918  26.355  0.00  0.00    -0.225 NA
ATOM      9  C   UNL     1       5.982  39.152  23.207  0.00  0.00    +0.124 A 
ENDROOT
BRANCH   1  14
ATOM     10  C   UNL     1       3.257  43.922  26.022  0.00  0.00    +0.002 A 
ATOM     11  C   UNL     1       4.054  44.483  25.040  0.00  0.00    +0.019 A 
ATOM     12  C   UNL     1       4.976  43.727  24.323  0.00  0.00    +0.081 A 
ATOM     13  C   UNL     1       5.102  42.345  24.599  0.00  0.00    +0.018 A 
ATOM     14  C   UNL     1       6.030  41.552  23.862  0.00  0.00    +0.008 A 
ATOM     15  C   UNL     1       6.825  42.234  22.957  0.00  0.00    +0.021 A 
ATOM     16  C   UNL     1       6.651  43.610  22.710  0.00  0.00    +0.099 A 
ATOM     17  C   UNL     1       4.271  41.801  25.569  0.00  0.00    +0.001 A 
ATOM     18  N   UNL     1       5.760  44.319  23.410  0.00  0.00    -0.244 NA
ATOM     19  C   UNL     1       3.361  42.564  26.300  0.00  0.00    +0.000 A 
ENDBRANCH   1  14
BRANCH   6  20
ATOM     20  C   UNL     1       8.326  36.676  27.844  0.00  0.00    +0.003 A 
ATOM     21  C   UNL     1       9.708  36.442  27.905  0.00  0.00    +0.001 A 
ATOM     22  C   UNL     1      10.200  35.525  28.852  0.00  0.00    +0.015 A 
ATOM     23  C   UNL     1       9.361  34.844  29.708  0.00  0.00    +0.048 A 
ATOM     24  C   UNL     1       8.001  35.082  29.644  0.00  0.00    +0.015 A 
ATOM     25  C   UNL     1       7.501  36.018  28.741  0.00  0.00    +0.001 A 
BRANCH  23  26
ATOM     26  N   UNL     1       9.820  33.925  30.706  0.00  0.00    -0.305 N 
ATOM     27  C   UNL     1       8.887  33.372  31.699  0.00  0.00    +0.110 C 
ATOM     28  C   UNL     1       9.497  32.260  32.595  0.00  0.00    +0.110 C 
ATOM     29  N   UNL     1      10.854  32.587  33.097  0.00  0.00    -0.214 NA
ATOM     30  C   UNL     1      11.417  33.809  32.479  0.00  0.00    +0.110 C 
ATOM     31  C   UNL     1      11.254  33.764  30.966  0.00  0.00    +0.110 C 
ENDBRANCH  23  26
ENDBRANCH   6  20
TORSDOF 3
ENDMDL
MODEL 6
REMARK VINA RESULT:      -6.3      2.126     10.556
REMARK  Name = 3Q4U_LDN.pdb
REMARK  3 active torsions:
REMARK  status: ('A' for Active; 'I' for Inactive)
REMARK    1  A    between atoms: _18  and  _19
REMARK    2  A    between atoms: _20  and  _30
REMARK    3  A    between atoms: _21  and  _22
REMARK                            x       y       z     vdW  Elec       q    Type
REMARK                         _______ _______ _______ _____ _____    ______ ____
ROOT
ATOM      1  C   UNL     1      10.578  35.757  30.197  0.00  0.00    +0.057 A 
ATOM      2  C   UNL     1       9.844  36.037  29.058  0.00  0.00    +0.165 A 
ATOM      3  N   UNL     1      10.565  37.052  28.363  0.00  0.00    -0.211 N 
ATOM      4  N   UNL     1      11.576  37.342  29.019  0.00  0.00    -0.162 NA
ATOM      5  C   UNL     1      10.092  37.545  27.171  0.00  0.00    +0.104 A 
ATOM      6  C   UNL     1       8.895  37.065  26.669  0.00  0.00    +0.038 A 
ATOM      7  C   UNL     1       8.230  36.045  27.358  0.00  0.00    +0.102 A 
ATOM      8  N   UNL     1       8.672  35.570  28.563  0.00  0.00    -0.225 NA
ATOM      9  C   UNL     1      11.613  36.575  30.136  0.00  0.00    +0.124 A 
ENDROOT
BRANCH   1  14
ATOM     10  C   UNL     1      11.336  30.692  31.255  0.00  0.00    +0.002 A 
ATOM     11  C   UNL     1      10.652  31.248  32.321  0.00  0.00    +0.019 A 
ATOM     12  C   UNL     1      10.299  32.594  32.346  0.00  0.00    +0.081 A 
ATOM     13  C   UNL     1      10.644  33.419  31.251  0.00  0.00    +0.018 A 
ATOM     14  C   UNL     1      10.277  34.797  31.252  0.00  0.00    +0.008 A 
ATOM     15  C   UNL     1       9.660  35.259  32.402  0.00  0.00    +0.021 A 
ATOM     16  C   UNL     1       9.327  34.392  33.462  0.00  0.00    +0.099 A 
ATOM     17  C   UNL     1      11.306  32.832  30.181  0.00  0.00    +0.001 A 
ATOM     18  N   UNL     1       9.675  33.102  33.419  0.00  0.00    -0.244 NA
ATOM     19  C   UNL     1      11.675  31.487  30.166  0.00  0.00    +0.000 A 
ENDBRANCH   1  14
BRANCH   6  20
ATOM     20  C   UNL     1       8.467  37.547  25.416  0.00  0.00    +0.003 A 
ATOM     21  C   UNL     1       7.110  37.571  25.056  0.00  0.00    +0.001 A 
ATOM     22  C   UNL     1       6.746  38.127  23.817  0.00  0.00    +0.015 A 
ATOM     23  C   UNL     1       7.685  38.634  22.944  0.00  0.00    +0.048 A 
ATOM     24  C   UNL     1       9.018  38.611  23.306  0.00  0.00    +0.015 A 
ATOM     25  C   UNL     1       9.393  38.103  24.548  0.00  0.00    +0.001 A 
BRANCH  23  26
ATOM     26  N   UNL     1       7.357  39.237  21.686  0.00  0.00    -0.305 N 
ATOM     27  C   UNL     1       7.117  38.404  20.498  0.00  0.00    +0.110 C 
ATOM     28  C   UNL     1       6.600  39.192  19.263  0.00  0.00    +0.110 C 
ATOM     29  N   UNL     1       7.333  40.460  19.026  0.00  0.00    -0.214 NA
ATOM     30  C   UNL     1       8.262  40.802  20.125  0.00  0.00    +0.110 C 
ATOM     31  C   UNL     1       7.567  40.672  21.472  0.00  0.00    +0.110 C 
ENDBRANCH  23  26
ENDBRANCH   6  20
TORSDOF 3
ENDMDL
MODEL 7
REMARK VINA RESULT:      -6.2      4.112     11.390
REMARK  Name = 3Q4U_LDN.pdb
REMARK  3 active torsions:
REMARK  status: ('A' for Active; 'I' for Inactive)
REMARK    1  A    between atoms: _18  and  _19
REMARK    2  A    between atoms: _20  and  _30
REMARK    3  A    between atoms: _21  and  _22
REMARK                            x       y       z     vdW  Elec       q    Type
REMARK                         _______ _______ _______ _____ _____    ______ ____
ROOT
ATOM      1  C   UNL     1       8.586  37.579  26.811  0.00  0.00    +0.057 A 
ATOM      2  C   UNL     1       8.041  37.694  25.545  0.00  0.00    +0.165 A 
ATOM      3  N   UNL     1       9.105  38.108  24.691  0.00  0.00    -0.211 N 
ATOM      4  N   UNL     1      10.133  38.238  25.373  0.00  0.00    -0.162 NA
ATOM      5  C   UNL     1       8.883  38.304  23.350  0.00  0.00    +0.104 A 
ATOM      6  C   UNL     1       7.607  38.122  22.844  0.00  0.00    +0.038 A 
ATOM      7  C   UNL     1       6.592  37.683  23.701  0.00  0.00    +0.102 A 
ATOM      8  N   UNL     1       6.794  37.518  25.046  0.00  0.00    -0.225 NA
ATOM      9  C   UNL     1       9.852  37.925  26.661  0.00  0.00    +0.124 A 
ENDROOT
BRANCH   1  14
ATOM     10  C   UNL     1       5.445  39.679  30.426  0.00  0.00    +0.002 A 
ATOM     11  C   UNL     1       5.682  38.364  30.786  0.00  0.00    +0.019 A 
ATOM     12  C   UNL     1       6.486  37.526  30.018  0.00  0.00    +0.081 A 
ATOM     13  C   UNL     1       7.082  38.031  28.839  0.00  0.00    +0.018 A 
ATOM     14  C   UNL     1       7.922  37.191  28.049  0.00  0.00    +0.008 A 
ATOM     15  C   UNL     1       8.028  35.876  28.466  0.00  0.00    +0.021 A 
ATOM     16  C   UNL     1       7.423  35.426  29.657  0.00  0.00    +0.099 A 
ATOM     17  C   UNL     1       6.851  39.361  28.514  0.00  0.00    +0.001 A 
ATOM     18  N   UNL     1       6.655  36.246  30.380  0.00  0.00    -0.244 NA
ATOM     19  C   UNL     1       6.031  40.193  29.275  0.00  0.00    +0.000 A 
ENDBRANCH   1  14
BRANCH   6  20
ATOM     20  C   UNL     1       7.423  38.273  21.455  0.00  0.00    +0.003 A 
ATOM     21  C   UNL     1       6.607  39.283  20.922  0.00  0.00    +0.001 A 
ATOM     22  C   UNL     1       6.520  39.420  19.525  0.00  0.00    +0.015 A 
ATOM     23  C   UNL     1       7.202  38.580  18.669  0.00  0.00    +0.048 A 
ATOM     24  C   UNL     1       8.006  37.590  19.201  0.00  0.00    +0.015 A 
ATOM     25  C   UNL     1       8.137  37.468  20.583  0.00  0.00    +0.001 A 
BRANCH  23  26
ATOM     26  N   UNL     1       7.167  38.700  17.242  0.00  0.00    -0.305 N 
ATOM     27  C   UNL     1       6.156  39.543  16.587  0.00  0.00    +0.110 C 
ATOM     28  C   UNL     1       6.362  39.710  15.057  0.00  0.00    +0.110 C 
ATOM     29  N   UNL     1       6.688  38.439  14.365  0.00  0.00    -0.214 NA
ATOM     30  C   UNL     1       6.944  37.323  15.303  0.00  0.00    +0.110 C 
ATOM     31  C   UNL     1       7.907  37.757  16.398  0.00  0.00    +0.110 C 
ENDBRANCH  23  26
ENDBRANCH   6  20
TORSDOF 3
ENDMDL
MODEL 8
REMARK VINA RESULT:      -6.0      5.323      9.916
REMARK  Name = 3Q4U_LDN.pdb
REMARK  3 active torsions:
REMARK  status: ('A' for Active; 'I' for Inactive)
REMARK    1  A    between atoms: _18  and  _19
REMARK    2  A    between atoms: _20  and  _30
REMARK    3  A    between atoms: _21  and  _22
REMARK                            x       y       z     vdW  Elec       q    Type
REMARK                         _______ _______ _______ _____ _____    ______ ____
ROOT
ATOM      1  C   UNL     1      10.012  35.040  30.242  0.00  0.00    +0.057 A 
ATOM      2  C   UNL     1       8.780  35.422  30.741  0.00  0.00    +0.165 A 
ATOM      3  N   UNL     1       7.984  35.767  29.610  0.00  0.00    -0.211 N 
ATOM      4  N   UNL     1       8.668  35.625  28.585  0.00  0.00    -0.162 NA
ATOM      5  C   UNL     1       6.686  36.185  29.775  0.00  0.00    +0.104 A 
ATOM      6  C   UNL     1       6.170  36.293  31.055  0.00  0.00    +0.038 A 
ATOM      7  C   UNL     1       6.966  35.914  32.143  0.00  0.00    +0.102 A 
ATOM      8  N   UNL     1       8.271  35.531  31.993  0.00  0.00    -0.225 NA
ATOM      9  C   UNL     1       9.902  35.186  28.934  0.00  0.00    +0.124 A 
ENDROOT
BRANCH   1  14
ATOM     10  C   UNL     1      12.364  30.576  31.615  0.00  0.00    +0.002 A 
ATOM     11  C   UNL     1      13.120  31.621  32.115  0.00  0.00    +0.019 A 
ATOM     12  C   UNL     1      12.758  32.950  31.913  0.00  0.00    +0.081 A 
ATOM     13  C   UNL     1      11.583  33.244  31.183  0.00  0.00    +0.018 A 
ATOM     14  C   UNL     1      11.189  34.600  30.982  0.00  0.00    +0.008 A 
ATOM     15  C   UNL     1      12.060  35.562  31.463  0.00  0.00    +0.021 A 
ATOM     16  C   UNL     1      13.213  35.216  32.195  0.00  0.00    +0.099 A 
ATOM     17  C   UNL     1      10.827  32.177  30.717  0.00  0.00    +0.001 A 
ATOM     18  N   UNL     1      13.543  33.934  32.377  0.00  0.00    -0.244 NA
ATOM     19  C   UNL     1      11.201  30.846  30.903  0.00  0.00    +0.000 A 
ENDBRANCH   1  14
BRANCH   6  20
ATOM     20  C   UNL     1       4.818  36.666  31.190  0.00  0.00    +0.003 A 
ATOM     21  C   UNL     1       3.774  35.748  30.999  0.00  0.00    +0.001 A 
ATOM     22  C   UNL     1       2.450  36.170  31.214  0.00  0.00    +0.015 A 
ATOM     23  C   UNL     1       2.152  37.463  31.593  0.00  0.00    +0.048 A 
ATOM     24  C   UNL     1       3.186  38.360  31.784  0.00  0.00    +0.015 A 
ATOM     25  C   UNL     1       4.506  37.946  31.615  0.00  0.00    +0.001 A 
BRANCH  23  26
ATOM     26  N   UNL     1       0.823  37.928  31.853  0.00  0.00    -0.305 N 
ATOM     27  C   UNL     1       0.545  39.366  31.978  0.00  0.00    +0.110 C 
ATOM     28  C   UNL     1      -0.965  39.717  32.079  0.00  0.00    +0.110 C 
ATOM     29  N   UNL     1      -1.712  38.833  33.007  0.00  0.00    -0.214 NA
ATOM     30  C   UNL     1      -0.907  37.686  33.482  0.00  0.00    +0.110 C 
ATOM     31  C   UNL     1      -0.214  36.999  32.315  0.00  0.00    +0.110 C 
ENDBRANCH  23  26
ENDBRANCH   6  20
TORSDOF 3
ENDMDL
MODEL 9
REMARK VINA RESULT:      -6.0      2.049     10.655
REMARK  Name = 3Q4U_LDN.pdb
REMARK  3 active torsions:
REMARK  status: ('A' for Active; 'I' for Inactive)
REMARK    1  A    between atoms: _18  and  _19
REMARK    2  A    between atoms: _20  and  _30
REMARK    3  A    between atoms: _21  and  _22
REMARK                            x       y       z     vdW  Elec       q    Type
REMARK                         _______ _______ _______ _____ _____    ______ ____
ROOT
ATOM      1  C   UNL     1       9.080  35.150  32.007  0.00  0.00    +0.057 A 
ATOM      2  C   UNL     1       8.657  35.512  30.740  0.00  0.00    +0.165 A 
ATOM      3  N   UNL     1       8.688  36.938  30.706  0.00  0.00    -0.211 N 
ATOM      4  N   UNL     1       9.060  37.354  31.813  0.00  0.00    -0.162 NA
ATOM      5  C   UNL     1       8.327  37.612  29.565  0.00  0.00    +0.104 A 
ATOM      6  C   UNL     1       7.907  36.892  28.460  0.00  0.00    +0.038 A 
ATOM      7  C   UNL     1       7.921  35.494  28.514  0.00  0.00    +0.102 A 
ATOM      8  N   UNL     1       8.245  34.812  29.656  0.00  0.00    -0.225 NA
ATOM      9  C   UNL     1       9.305  36.296  32.624  0.00  0.00    +0.124 A 
ENDROOT
BRANCH   1  14
ATOM     10  C   UNL     1      12.774  31.492  32.573  0.00  0.00    +0.002 A 
ATOM     11  C   UNL     1      11.609  31.005  33.138  0.00  0.00    +0.019 A 
ATOM     12  C   UNL     1      10.433  31.750  33.152  0.00  0.00    +0.081 A 
ATOM     13  C   UNL     1      10.424  33.039  32.570  0.00  0.00    +0.018 A 
ATOM     14  C   UNL     1       9.224  33.810  32.561  0.00  0.00    +0.008 A 
ATOM     15  C   UNL     1       8.141  33.252  33.219  0.00  0.00    +0.021 A 
ATOM     16  C   UNL     1       8.198  31.958  33.773  0.00  0.00    +0.099 A 
ATOM     17  C   UNL     1      11.599  33.493  31.985  0.00  0.00    +0.001 A 
ATOM     18  N   UNL     1       9.337  31.259  33.749  0.00  0.00    -0.244 NA
ATOM     19  C   UNL     1      12.781  32.753  31.988  0.00  0.00    +0.000 A 
ENDBRANCH   1  14
BRANCH   6  20
ATOM     20  C   UNL     1       7.600  37.609  27.286  0.00  0.00    +0.003 A 
ATOM     21  C   UNL     1       7.184  38.948  27.324  0.00  0.00    +0.001 A 
ATOM     22  C   UNL     1       6.957  39.624  26.111  0.00  0.00    +0.015 A 
ATOM     23  C   UNL     1       7.121  39.001  24.891  0.00  0.00    +0.048 A 
ATOM     24  C   UNL     1       7.535  37.683  24.861  0.00  0.00    +0.015 A 
ATOM     25  C   UNL     1       7.804  37.012  26.053  0.00  0.00    +0.001 A 
BRANCH  23  26
ATOM     26  N   UNL     1       6.932  39.658  23.632  0.00  0.00    -0.305 N 
ATOM     27  C   UNL     1       7.234  38.962  22.373  0.00  0.00    +0.110 C 
ATOM     28  C   UNL     1       6.808  39.741  21.098  0.00  0.00    +0.110 C 
ATOM     29  N   UNL     1       7.165  41.180  21.141  0.00  0.00    -0.214 NA
ATOM     30  C   UNL     1       7.667  41.608  22.466  0.00  0.00    +0.110 C 
ATOM     31  C   UNL     1       6.748  41.112  23.572  0.00  0.00    +0.110 C 
ENDBRANCH  23  26
ENDBRANCH   6  20
TORSDOF 3
ENDMDL
