MODEL 1
REMARK VINA RESULT:      -5.6      0.000      0.000
REMARK  Name = 5OXG_B4B.pdb
REMARK  3 active torsions:
REMARK  status: ('A' for Active; 'I' for Inactive)
REMARK    1  A    between atoms: _3  and  _7
REMARK    2  A    between atoms: _10  and  _13
REMARK    3  A    between atoms: _17  and  _22
REMARK                            x       y       z     vdW  Elec       q    Type
REMARK                         _______ _______ _______ _____ _____    ______ ____
ROOT
ATOM      1  C   UNL     1      28.430  19.227  24.804  0.00  0.00    +0.038 A 
ATOM      2  C   UNL     1      27.392  19.130  23.868  0.00  0.00    +0.104 A 
ATOM      3  N   UNL     1      27.518  19.709  22.629  0.00  0.00    -0.211 N 
ATOM      4  N   UNL     1      26.643  19.762  21.575  0.00  0.00    -0.162 NA
ATOM      5  C   UNL     1      27.219  20.426  20.564  0.00  0.00    +0.124 A 
ATOM      6  C   UNL     1      28.491  20.828  20.949  0.00  0.00    +0.057 A 
ATOM      7  C   UNL     1      28.635  20.342  22.282  0.00  0.00    +0.165 A 
ATOM      8  N   UNL     1      29.677  20.451  23.163  0.00  0.00    -0.225 NA
ATOM      9  C   UNL     1      29.599  19.890  24.388  0.00  0.00    +0.102 A 
ENDROOT
BRANCH   6  10
ATOM     10  C   UNL     1      29.354  21.578  20.129  0.00  0.00    +0.006 A 
ATOM     11  C   UNL     1      29.545  23.005  20.185  0.00  0.00    +0.018 A 
ATOM     12  C   UNL     1      28.815  23.865  21.081  0.00  0.00    +0.003 A 
ATOM     13  C   UNL     1      29.054  25.236  21.057  0.00  0.00    +0.021 A 
ATOM     14  C   UNL     1      30.004  25.770  20.177  0.00  0.00    +0.099 A 
ATOM     15  N   UNL     1      30.692  24.973  19.333  0.00  0.00    -0.244 NA
ATOM     16  C   UNL     1      30.463  23.606  19.338  0.00  0.00    +0.081 A 
ATOM     17  C   UNL     1      31.230  22.843  18.415  0.00  0.00    +0.019 A 
ATOM     18  C   UNL     1      31.072  21.459  18.380  0.00  0.00    +0.002 A 
ATOM     19  C   UNL     1      30.133  20.847  19.222  0.00  0.00    +0.000 A 
ENDBRANCH   6  10
BRANCH   1  23
ATOM     20  C   UNL     1      28.043  17.337  28.591  0.00  0.00    +0.048 A 
ATOM     21  C   UNL     1      28.280  18.692  28.493  0.00  0.00    +0.015 A 
ATOM     22  C   UNL     1      28.418  19.314  27.256  0.00  0.00    +0.001 A 
ATOM     23  C   UNL     1      28.332  18.598  26.065  0.00  0.00    +0.003 A 
ATOM     24  C   UNL     1      28.052  17.233  26.164  0.00  0.00    +0.001 A 
ATOM     25  C   UNL     1      27.906  16.623  27.402  0.00  0.00    +0.015 A 
BRANCH  20  30
ATOM     26  C   UNL     1      26.535  15.351  31.510  0.00  0.00    +0.110 C 
ATOM     27  N   UNL     1      26.926  16.189  32.609  0.00  0.00    -0.214 NA
ATOM     28  C   UNL     1      28.164  16.901  32.353  0.00  0.00    +0.110 C 
ATOM     29  C   UNL     1      28.192  17.600  30.997  0.00  0.00    +0.110 C 
ATOM     30  N   UNL     1      27.871  16.741  29.882  0.00  0.00    -0.305 N 
ATOM     31  C   UNL     1      26.644  16.036  30.151  0.00  0.00    +0.110 C 
ENDBRANCH  20  30
ENDBRANCH   1  23
TORSDOF 3
ENDMDL
MODEL 2
REMARK VINA RESULT:      -5.6      4.415      6.915
REMARK  Name = 5OXG_B4B.pdb
REMARK  3 active torsions:
REMARK  status: ('A' for Active; 'I' for Inactive)
REMARK    1  A    between atoms: _3  and  _7
REMARK    2  A    between atoms: _10  and  _13
REMARK    3  A    between atoms: _17  and  _22
REMARK                            x       y       z     vdW  Elec       q    Type
REMARK                         _______ _______ _______ _____ _____    ______ ____
ROOT
ATOM      1  C   UNL     1      27.409  19.533  20.790  0.00  0.00    +0.038 A 
ATOM      2  C   UNL     1      28.326  19.277  19.763  0.00  0.00    +0.104 A 
ATOM      3  N   UNL     1      27.901  19.181  18.461  0.00  0.00    -0.211 N 
ATOM      4  N   UNL     1      28.600  18.922  17.310  0.00  0.00    -0.162 NA
ATOM      5  C   UNL     1      27.754  18.944  16.272  0.00  0.00    +0.124 A 
ATOM      6  C   UNL     1      26.472  19.214  16.735  0.00  0.00    +0.057 A 
ATOM      7  C   UNL     1      26.622  19.359  18.146  0.00  0.00    +0.165 A 
ATOM      8  N   UNL     1      25.694  19.620  19.118  0.00  0.00    -0.225 NA
ATOM      9  C   UNL     1      26.069  19.732  20.410  0.00  0.00    +0.102 A 
ENDROOT
BRANCH   6  10
ATOM     10  C   UNL     1      25.339  19.276  15.903  0.00  0.00    +0.006 A 
ATOM     11  C   UNL     1      24.249  18.333  15.889  0.00  0.00    +0.018 A 
ATOM     12  C   UNL     1      24.214  17.153  16.713  0.00  0.00    +0.003 A 
ATOM     13  C   UNL     1      23.127  16.289  16.623  0.00  0.00    +0.021 A 
ATOM     14  C   UNL     1      22.072  16.574  15.746  0.00  0.00    +0.099 A 
ATOM     15  N   UNL     1      22.096  17.677  14.968  0.00  0.00    -0.244 NA
ATOM     16  C   UNL     1      23.174  18.545  15.040  0.00  0.00    +0.081 A 
ATOM     17  C   UNL     1      23.117  19.679  14.183  0.00  0.00    +0.019 A 
ATOM     18  C   UNL     1      24.154  20.610  14.218  0.00  0.00    +0.002 A 
ATOM     19  C   UNL     1      25.252  20.394  15.062  0.00  0.00    +0.000 A 
ENDBRANCH   6  10
BRANCH   1  23
ATOM     20  C   UNL     1      28.757  19.900  24.804  0.00  0.00    +0.048 A 
ATOM     21  C   UNL     1      27.549  19.302  24.511  0.00  0.00    +0.015 A 
ATOM     22  C   UNL     1      27.098  19.188  23.200  0.00  0.00    +0.001 A 
ATOM     23  C   UNL     1      27.839  19.679  22.128  0.00  0.00    +0.003 A 
ATOM     24  C   UNL     1      29.080  20.250  22.422  0.00  0.00    +0.001 A 
ATOM     25  C   UNL     1      29.526  20.349  23.733  0.00  0.00    +0.015 A 
BRANCH  20  30
ATOM     26  C   UNL     1      30.965  20.512  27.884  0.00  0.00    +0.110 C 
ATOM     27  N   UNL     1      30.587  19.383  28.690  0.00  0.00    -0.214 NA
ATOM     28  C   UNL     1      29.222  18.957  28.445  0.00  0.00    +0.110 C 
ATOM     29  C   UNL     1      28.891  18.803  26.964  0.00  0.00    +0.110 C 
ATOM     30  N   UNL     1      29.201  19.965  26.164  0.00  0.00    -0.305 N 
ATOM     31  C   UNL     1      30.556  20.382  26.420  0.00  0.00    +0.110 C 
ENDBRANCH  20  30
ENDBRANCH   1  23
TORSDOF 3
ENDMDL
MODEL 3
REMARK VINA RESULT:      -5.6      3.531      4.890
REMARK  Name = 5OXG_B4B.pdb
REMARK  3 active torsions:
REMARK  status: ('A' for Active; 'I' for Inactive)
REMARK    1  A    between atoms: _3  and  _7
REMARK    2  A    between atoms: _10  and  _13
REMARK    3  A    between atoms: _17  and  _22
REMARK                            x       y       z     vdW  Elec       q    Type
REMARK                         _______ _______ _______ _____ _____    ______ ____
ROOT
ATOM      1  C   UNL     1      27.338  18.502  22.649  0.00  0.00    +0.038 A 
ATOM      2  C   UNL     1      27.381  17.321  21.898  0.00  0.00    +0.104 A 
ATOM      3  N   UNL     1      27.007  17.323  20.577  0.00  0.00    -0.211 N 
ATOM      4  N   UNL     1      26.948  16.303  19.663  0.00  0.00    -0.162 NA
ATOM      5  C   UNL     1      26.537  16.794  18.486  0.00  0.00    +0.124 A 
ATOM      6  C   UNL     1      26.310  18.158  18.617  0.00  0.00    +0.057 A 
ATOM      7  C   UNL     1      26.628  18.448  19.977  0.00  0.00    +0.165 A 
ATOM      8  N   UNL     1      26.580  19.626  20.672  0.00  0.00    -0.225 NA
ATOM      9  C   UNL     1      26.948  19.671  21.970  0.00  0.00    +0.102 A 
ENDROOT
BRANCH   6  10
ATOM     10  C   UNL     1      25.837  18.974  17.572  0.00  0.00    +0.006 A 
ATOM     11  C   UNL     1      26.637  19.537  16.514  0.00  0.00    +0.018 A 
ATOM     12  C   UNL     1      28.064  19.368  16.426  0.00  0.00    +0.003 A 
ATOM     13  C   UNL     1      28.758  19.960  15.375  0.00  0.00    +0.021 A 
ATOM     14  C   UNL     1      28.070  20.703  14.407  0.00  0.00    +0.099 A 
ATOM     15  N   UNL     1      26.732  20.869  14.482  0.00  0.00    -0.244 NA
ATOM     16  C   UNL     1      26.026  20.291  15.525  0.00  0.00    +0.081 A 
ATOM     17  C   UNL     1      24.622  20.519  15.526  0.00  0.00    +0.019 A 
ATOM     18  C   UNL     1      23.841  19.950  16.530  0.00  0.00    +0.002 A 
ATOM     19  C   UNL     1      24.454  19.199  17.543  0.00  0.00    +0.000 A 
ENDBRANCH   6  10
BRANCH   1  23
ATOM     20  C   UNL     1      28.700  18.593  26.673  0.00  0.00    +0.048 A 
ATOM     21  C   UNL     1      28.650  17.410  25.966  0.00  0.00    +0.015 A 
ATOM     22  C   UNL     1      28.196  17.373  24.652  0.00  0.00    +0.001 A 
ATOM     23  C   UNL     1      27.763  18.523  23.995  0.00  0.00    +0.003 A 
ATOM     24  C   UNL     1      27.852  19.727  24.699  0.00  0.00    +0.001 A 
ATOM     25  C   UNL     1      28.317  19.755  26.006  0.00  0.00    +0.015 A 
BRANCH  20  30
ATOM     26  C   UNL     1      28.847  18.521  30.508  0.00  0.00    +0.110 C 
ATOM     27  N   UNL     1      29.932  19.435  30.734  0.00  0.00    -0.214 NA
ATOM     28  C   UNL     1      30.893  19.437  29.647  0.00  0.00    +0.110 C 
ATOM     29  C   UNL     1      30.250  19.561  28.269  0.00  0.00    +0.110 C 
ATOM     30  N   UNL     1      29.209  18.594  28.012  0.00  0.00    -0.305 N 
ATOM     31  C   UNL     1      28.265  18.598  29.100  0.00  0.00    +0.110 C 
ENDBRANCH  20  30
ENDBRANCH   1  23
TORSDOF 3
ENDMDL
MODEL 4
REMARK VINA RESULT:      -5.4      1.787      2.304
REMARK  Name = 5OXG_B4B.pdb
REMARK  3 active torsions:
REMARK  status: ('A' for Active; 'I' for Inactive)
REMARK    1  A    between atoms: _3  and  _7
REMARK    2  A    between atoms: _10  and  _13
REMARK    3  A    between atoms: _17  and  _22
REMARK                            x       y       z     vdW  Elec       q    Type
REMARK                         _______ _______ _______ _____ _____    ______ ____
ROOT
ATOM      1  C   UNL     1      28.988  19.706  25.645  0.00  0.00    +0.038 A 
ATOM      2  C   UNL     1      27.775  19.407  25.010  0.00  0.00    +0.104 A 
ATOM      3  N   UNL     1      27.639  19.585  23.655  0.00  0.00    -0.211 N 
ATOM      4  N   UNL     1      26.561  19.383  22.832  0.00  0.00    -0.162 NA
ATOM      5  C   UNL     1      26.912  19.679  21.574  0.00  0.00    +0.124 A 
ATOM      6  C   UNL     1      28.238  20.092  21.556  0.00  0.00    +0.057 A 
ATOM      7  C   UNL     1      28.659  20.012  22.917  0.00  0.00    +0.165 A 
ATOM      8  N   UNL     1      29.864  20.306  23.496  0.00  0.00    -0.225 NA
ATOM      9  C   UNL     1      30.045  20.138  24.823  0.00  0.00    +0.102 A 
ENDROOT
BRANCH   6  10
ATOM     10  C   UNL     1      28.911  20.508  20.392  0.00  0.00    +0.006 A 
ATOM     11  C   UNL     1      29.297  21.860  20.077  0.00  0.00    +0.018 A 
ATOM     12  C   UNL     1      28.986  22.987  20.918  0.00  0.00    +0.003 A 
ATOM     13  C   UNL     1      29.386  24.261  20.528  0.00  0.00    +0.021 A 
ATOM     14  C   UNL     1      30.095  24.441  19.333  0.00  0.00    +0.099 A 
ATOM     15  N   UNL     1      30.390  23.392  18.537  0.00  0.00    -0.244 NA
ATOM     16  C   UNL     1      29.993  22.116  18.907  0.00  0.00    +0.081 A 
ATOM     17  C   UNL     1      30.345  21.071  18.008  0.00  0.00    +0.019 A 
ATOM     18  C   UNL     1      30.001  19.758  18.325  0.00  0.00    +0.002 A 
ATOM     19  C   UNL     1      29.282  19.493  19.499  0.00  0.00    +0.000 A 
ENDBRANCH   6  10
BRANCH   1  23
ATOM     20  C   UNL     1      29.545  18.967  29.793  0.00  0.00    +0.048 A 
ATOM     21  C   UNL     1      28.392  18.572  29.149  0.00  0.00    +0.015 A 
ATOM     22  C   UNL     1      28.200  18.820  27.793  0.00  0.00    +0.001 A 
ATOM     23  C   UNL     1      29.156  19.485  27.030  0.00  0.00    +0.003 A 
ATOM     24  C   UNL     1      30.341  19.850  27.674  0.00  0.00    +0.001 A 
ATOM     25  C   UNL     1      30.528  19.588  29.024  0.00  0.00    +0.015 A 
BRANCH  20  30
ATOM     26  C   UNL     1      28.850  18.583  33.548  0.00  0.00    +0.110 C 
ATOM     27  N   UNL     1      30.142  18.926  34.077  0.00  0.00    -0.214 NA
ATOM     28  C   UNL     1      31.222  18.587  33.170  0.00  0.00    +0.110 C 
ATOM     29  C   UNL     1      30.987  19.067  31.741  0.00  0.00    +0.110 C 
ATOM     30  N   UNL     1      29.720  18.660  31.181  0.00  0.00    -0.305 N 
ATOM     31  C   UNL     1      28.657  18.997  32.093  0.00  0.00    +0.110 C 
ENDBRANCH  20  30
ENDBRANCH   1  23
TORSDOF 3
ENDMDL
MODEL 5
REMARK VINA RESULT:      -5.3      9.335     12.001
REMARK  Name = 5OXG_B4B.pdb
REMARK  3 active torsions:
REMARK  status: ('A' for Active; 'I' for Inactive)
REMARK    1  A    between atoms: _3  and  _7
REMARK    2  A    between atoms: _10  and  _13
REMARK    3  A    between atoms: _17  and  _22
REMARK                            x       y       z     vdW  Elec       q    Type
REMARK                         _______ _______ _______ _____ _____    ______ ____
ROOT
ATOM      1  C   UNL     1      27.938  18.798  33.286  0.00  0.00    +0.038 A 
ATOM      2  C   UNL     1      27.149  18.199  34.276  0.00  0.00    +0.104 A 
ATOM      3  N   UNL     1      26.454  17.046  34.007  0.00  0.00    -0.211 N 
ATOM      4  N   UNL     1      25.615  16.303  34.797  0.00  0.00    -0.162 NA
ATOM      5  C   UNL     1      25.182  15.244  34.099  0.00  0.00    +0.124 A 
ATOM      6  C   UNL     1      25.732  15.284  32.824  0.00  0.00    +0.057 A 
ATOM      7  C   UNL     1      26.541  16.458  32.817  0.00  0.00    +0.165 A 
ATOM      8  N   UNL     1      27.310  17.006  31.825  0.00  0.00    -0.225 NA
ATOM      9  C   UNL     1      28.016  18.134  32.049  0.00  0.00    +0.102 A 
ENDROOT
BRANCH   6  10
ATOM     10  C   UNL     1      25.455  14.333  31.825  0.00  0.00    +0.006 A 
ATOM     11  C   UNL     1      24.662  14.557  30.643  0.00  0.00    +0.018 A 
ATOM     12  C   UNL     1      23.997  15.802  30.362  0.00  0.00    +0.003 A 
ATOM     13  C   UNL     1      23.238  15.925  29.201  0.00  0.00    +0.021 A 
ATOM     14  C   UNL     1      23.134  14.848  28.312  0.00  0.00    +0.099 A 
ATOM     15  N   UNL     1      23.752  13.675  28.567  0.00  0.00    -0.244 NA
ATOM     16  C   UNL     1      24.507  13.534  29.721  0.00  0.00    +0.081 A 
ATOM     17  C   UNL     1      25.120  12.264  29.911  0.00  0.00    +0.019 A 
ATOM     18  C   UNL     1      25.915  12.055  31.037  0.00  0.00    +0.002 A 
ATOM     19  C   UNL     1      26.062  13.079  31.982  0.00  0.00    +0.000 A 
ENDBRANCH   6  10
BRANCH   1  23
ATOM     20  C   UNL     1      30.133  22.335  34.145  0.00  0.00    +0.048 A 
ATOM     21  C   UNL     1      29.781  22.013  32.851  0.00  0.00    +0.015 A 
ATOM     22  C   UNL     1      29.071  20.852  32.563  0.00  0.00    +0.001 A 
ATOM     23  C   UNL     1      28.693  19.959  33.564  0.00  0.00    +0.003 A 
ATOM     24  C   UNL     1      29.017  20.305  34.878  0.00  0.00    +0.001 A 
ATOM     25  C   UNL     1      29.715  21.472  35.156  0.00  0.00    +0.015 A 
BRANCH  20  30
ATOM     26  C   UNL     1      31.494  25.435  35.954  0.00  0.00    +0.110 C 
ATOM     27  N   UNL     1      31.431  26.394  34.887  0.00  0.00    -0.214 NA
ATOM     28  C   UNL     1      31.596  25.785  33.581  0.00  0.00    +0.110 C 
ATOM     29  C   UNL     1      30.714  24.558  33.368  0.00  0.00    +0.110 C 
ATOM     30  N   UNL     1      30.832  23.558  34.402  0.00  0.00    -0.305 N 
ATOM     31  C   UNL     1      30.672  24.176  35.694  0.00  0.00    +0.110 C 
ENDBRANCH  20  30
ENDBRANCH   1  23
TORSDOF 3
ENDMDL
MODEL 6
REMARK VINA RESULT:      -5.2      3.655     10.719
REMARK  Name = 5OXG_B4B.pdb
REMARK  3 active torsions:
REMARK  status: ('A' for Active; 'I' for Inactive)
REMARK    1  A    between atoms: _3  and  _7
REMARK    2  A    between atoms: _10  and  _13
REMARK    3  A    between atoms: _17  and  _22
REMARK                            x       y       z     vdW  Elec       q    Type
REMARK                         _______ _______ _______ _____ _____    ______ ____
ROOT
ATOM      1  C   UNL     1      27.319  18.168  22.947  0.00  0.00    +0.038 A 
ATOM      2  C   UNL     1      27.456  19.263  23.809  0.00  0.00    +0.104 A 
ATOM      3  N   UNL     1      27.881  19.080  25.102  0.00  0.00    -0.211 N 
ATOM      4  N   UNL     1      28.069  19.983  26.117  0.00  0.00    -0.162 NA
ATOM      5  C   UNL     1      28.513  19.334  27.201  0.00  0.00    +0.124 A 
ATOM      6  C   UNL     1      28.617  17.980  26.910  0.00  0.00    +0.057 A 
ATOM      7  C   UNL     1      28.202  17.870  25.550  0.00  0.00    +0.165 A 
ATOM      8  N   UNL     1      28.091  16.774  24.737  0.00  0.00    -0.225 NA
ATOM      9  C   UNL     1      27.685  16.909  23.457  0.00  0.00    +0.102 A 
ENDROOT
BRANCH   6  10
ATOM     10  C   UNL     1      29.026  17.010  27.845  0.00  0.00    +0.006 A 
ATOM     11  C   UNL     1      28.154  16.177  28.634  0.00  0.00    +0.018 A 
ATOM     12  C   UNL     1      26.719  16.278  28.596  0.00  0.00    +0.003 A 
ATOM     13  C   UNL     1      25.954  15.442  29.405  0.00  0.00    +0.021 A 
ATOM     14  C   UNL     1      26.579  14.505  30.238  0.00  0.00    +0.099 A 
ATOM     15  N   UNL     1      27.924  14.404  30.282  0.00  0.00    -0.244 NA
ATOM     16  C   UNL     1      28.701  15.233  29.488  0.00  0.00    +0.081 A 
ATOM     17  C   UNL     1      30.109  15.059  29.600  0.00  0.00    +0.019 A 
ATOM     18  C   UNL     1      30.954  15.841  28.814  0.00  0.00    +0.002 A 
ATOM     19  C   UNL     1      30.409  16.809  27.960  0.00  0.00    +0.000 A 
ENDBRANCH   6  10
BRANCH   1  23
ATOM     20  C   UNL     1      26.223  18.716  18.878  0.00  0.00    +0.048 A 
ATOM     21  C   UNL     1      26.143  19.754  19.782  0.00  0.00    +0.015 A 
ATOM     22  C   UNL     1      26.492  19.578  21.117  0.00  0.00    +0.001 A 
ATOM     23  C   UNL     1      26.925  18.347  21.602  0.00  0.00    +0.003 A 
ATOM     24  C   UNL     1      27.043  17.306  20.678  0.00  0.00    +0.001 A 
ATOM     25  C   UNL     1      26.704  17.495  19.345  0.00  0.00    +0.015 A 
BRANCH  20  30
ATOM     26  C   UNL     1      26.549  19.584  15.152  0.00  0.00    +0.110 C 
ATOM     27  N   UNL     1      25.308  20.279  14.949  0.00  0.00    -0.214 NA
ATOM     28  C   UNL     1      24.256  19.807  15.828  0.00  0.00    +0.110 C 
ATOM     29  C   UNL     1      24.683  19.711  17.289  0.00  0.00    +0.110 C 
ATOM     30  N   UNL     1      25.891  18.949  17.504  0.00  0.00    -0.305 N 
ATOM     31  C   UNL     1      26.926  19.423  16.622  0.00  0.00    +0.110 C 
ENDBRANCH  20  30
ENDBRANCH   1  23
TORSDOF 3
ENDMDL
MODEL 7
REMARK VINA RESULT:      -5.2      8.141      9.847
REMARK  Name = 5OXG_B4B.pdb
REMARK  3 active torsions:
REMARK  status: ('A' for Active; 'I' for Inactive)
REMARK    1  A    between atoms: _3  and  _7
REMARK    2  A    between atoms: _10  and  _13
REMARK    3  A    between atoms: _17  and  _22
REMARK                            x       y       z     vdW  Elec       q    Type
REMARK                         _______ _______ _______ _____ _____    ______ ____
ROOT
ATOM      1  C   UNL     1      25.153  14.757  28.129  0.00  0.00    +0.038 A 
ATOM      2  C   UNL     1      25.781  14.118  27.052  0.00  0.00    +0.104 A 
ATOM      3  N   UNL     1      25.033  13.505  26.077  0.00  0.00    -0.211 N 
ATOM      4  N   UNL     1      25.419  12.812  24.959  0.00  0.00    -0.162 NA
ATOM      5  C   UNL     1      24.327  12.410  24.295  0.00  0.00    +0.124 A 
ATOM      6  C   UNL     1      23.196  12.833  24.982  0.00  0.00    +0.057 A 
ATOM      7  C   UNL     1      23.704  13.532  26.117  0.00  0.00    +0.165 A 
ATOM      8  N   UNL     1      23.051  14.154  27.147  0.00  0.00    -0.225 NA
ATOM      9  C   UNL     1      23.746  14.777  28.122  0.00  0.00    +0.102 A 
ENDROOT
BRANCH   6  10
ATOM     10  C   UNL     1      21.881  12.548  24.571  0.00  0.00    +0.006 A 
ATOM     11  C   UNL     1      21.183  13.179  23.479  0.00  0.00    +0.018 A 
ATOM     12  C   UNL     1      21.747  14.242  22.689  0.00  0.00    +0.003 A 
ATOM     13  C   UNL     1      20.994  14.803  21.661  0.00  0.00    +0.021 A 
ATOM     14  C   UNL     1      19.704  14.327  21.394  0.00  0.00    +0.099 A 
ATOM     15  N   UNL     1      19.166  13.332  22.130  0.00  0.00    -0.244 NA
ATOM     16  C   UNL     1      19.899  12.766  23.161  0.00  0.00    +0.081 A 
ATOM     17  C   UNL     1      19.252  11.726  23.884  0.00  0.00    +0.019 A 
ATOM     18  C   UNL     1      19.937  11.092  24.920  0.00  0.00    +0.002 A 
ATOM     19  C   UNL     1      21.230  11.515  25.258  0.00  0.00    +0.000 A 
ENDBRANCH   6  10
BRANCH   1  23
ATOM     20  C   UNL     1      27.362  16.848  31.096  0.00  0.00    +0.048 A 
ATOM     21  C   UNL     1      27.699  16.940  29.762  0.00  0.00    +0.015 A 
ATOM     22  C   UNL     1      26.986  16.250  28.787  0.00  0.00    +0.001 A 
ATOM     23  C   UNL     1      25.908  15.430  29.114  0.00  0.00    +0.003 A 
ATOM     24  C   UNL     1      25.543  15.368  30.461  0.00  0.00    +0.001 A 
ATOM     25  C   UNL     1      26.255  16.069  31.425  0.00  0.00    +0.015 A 
BRANCH  20  30
ATOM     26  C   UNL     1      28.646  18.182  34.459  0.00  0.00    +0.110 C 
ATOM     27  N   UNL     1      28.821  19.569  34.126  0.00  0.00    -0.214 NA
ATOM     28  C   UNL     1      29.143  19.769  32.726  0.00  0.00    +0.110 C 
ATOM     29  C   UNL     1      28.218  19.013  31.777  0.00  0.00    +0.110 C 
ATOM     30  N   UNL     1      28.100  17.603  32.064  0.00  0.00    -0.305 N 
ATOM     31  C   UNL     1      27.785  17.418  33.458  0.00  0.00    +0.110 C 
ENDBRANCH  20  30
ENDBRANCH   1  23
TORSDOF 3
ENDMDL
MODEL 8
REMARK VINA RESULT:      -5.1      1.110      2.396
REMARK  Name = 5OXG_B4B.pdb
REMARK  3 active torsions:
REMARK  status: ('A' for Active; 'I' for Inactive)
REMARK    1  A    between atoms: _3  and  _7
REMARK    2  A    between atoms: _10  and  _13
REMARK    3  A    between atoms: _17  and  _22
REMARK                            x       y       z     vdW  Elec       q    Type
REMARK                         _______ _______ _______ _____ _____    ______ ____
ROOT
ATOM      1  C   UNL     1      28.309  19.210  24.887  0.00  0.00    +0.038 A 
ATOM      2  C   UNL     1      27.286  19.035  23.947  0.00  0.00    +0.104 A 
ATOM      3  N   UNL     1      27.367  19.632  22.713  0.00  0.00    -0.211 N 
ATOM      4  N   UNL     1      26.494  19.621  21.656  0.00  0.00    -0.162 NA
ATOM      5  C   UNL     1      27.015  20.338  20.652  0.00  0.00    +0.124 A 
ATOM      6  C   UNL     1      28.249  20.842  21.046  0.00  0.00    +0.057 A 
ATOM      7  C   UNL     1      28.428  20.359  22.375  0.00  0.00    +0.165 A 
ATOM      8  N   UNL     1      29.455  20.547  23.261  0.00  0.00    -0.225 NA
ATOM      9  C   UNL     1      29.420  19.972  24.482  0.00  0.00    +0.102 A 
ENDROOT
BRANCH   6  10
ATOM     10  C   UNL     1      29.049  21.668  20.234  0.00  0.00    +0.006 A 
ATOM     11  C   UNL     1      29.795  21.246  19.076  0.00  0.00    +0.018 A 
ATOM     12  C   UNL     1      29.853  19.879  18.628  0.00  0.00    +0.003 A 
ATOM     13  C   UNL     1      30.611  19.559  17.506  0.00  0.00    +0.021 A 
ATOM     14  C   UNL     1      31.302  20.563  16.814  0.00  0.00    +0.099 A 
ATOM     15  N   UNL     1      31.255  21.847  17.227  0.00  0.00    -0.244 NA
ATOM     16  C   UNL     1      30.510  22.182  18.346  0.00  0.00    +0.081 A 
ATOM     17  C   UNL     1      30.520  23.558  18.710  0.00  0.00    +0.019 A 
ATOM     18  C   UNL     1      29.773  23.975  19.811  0.00  0.00    +0.002 A 
ATOM     19  C   UNL     1      29.061  23.031  20.563  0.00  0.00    +0.000 A 
ENDBRANCH   6  10
BRANCH   1  23
ATOM     20  C   UNL     1      28.068  17.269  28.661  0.00  0.00    +0.048 A 
ATOM     21  C   UNL     1      28.273  18.630  28.573  0.00  0.00    +0.015 A 
ATOM     22  C   UNL     1      28.362  19.269  27.340  0.00  0.00    +0.001 A 
ATOM     23  C   UNL     1      28.259  18.565  26.143  0.00  0.00    +0.003 A 
ATOM     24  C   UNL     1      28.012  17.193  26.233  0.00  0.00    +0.001 A 
ATOM     25  C   UNL     1      27.914  16.566  27.467  0.00  0.00    +0.015 A 
BRANCH  20  30
ATOM     26  C   UNL     1      28.048  16.775  32.467  0.00  0.00    +0.110 C 
ATOM     27  N   UNL     1      28.590  15.447  32.549  0.00  0.00    -0.214 NA
ATOM     28  C   UNL     1      28.269  14.643  31.385  0.00  0.00    +0.110 C 
ATOM     29  C   UNL     1      28.552  15.350  30.063  0.00  0.00    +0.110 C 
ATOM     30  N   UNL     1      27.946  16.656  29.949  0.00  0.00    -0.305 N 
ATOM     31  C   UNL     1      28.266  17.442  31.113  0.00  0.00    +0.110 C 
ENDBRANCH  20  30
ENDBRANCH   1  23
TORSDOF 3
ENDMDL
MODEL 9
REMARK VINA RESULT:      -5.1      3.119     10.465
REMARK  Name = 5OXG_B4B.pdb
REMARK  3 active torsions:
REMARK  status: ('A' for Active; 'I' for Inactive)
REMARK    1  A    between atoms: _3  and  _7
REMARK    2  A    between atoms: _10  and  _13
REMARK    3  A    between atoms: _17  and  _22
REMARK                            x       y       z     vdW  Elec       q    Type
REMARK                         _______ _______ _______ _____ _____    ______ ____
ROOT
ATOM      1  C   UNL     1      28.758  19.226  24.646  0.00  0.00    +0.038 A 
ATOM      2  C   UNL     1      29.952  18.607  25.039  0.00  0.00    +0.104 A 
ATOM      3  N   UNL     1      30.283  18.520  26.369  0.00  0.00    -0.211 N 
ATOM      4  N   UNL     1      31.388  17.986  26.981  0.00  0.00    -0.162 NA
ATOM      5  C   UNL     1      31.258  18.118  28.308  0.00  0.00    +0.124 A 
ATOM      6  C   UNL     1      30.056  18.755  28.586  0.00  0.00    +0.057 A 
ATOM      7  C   UNL     1      29.467  18.989  27.308  0.00  0.00    +0.165 A 
ATOM      8  N   UNL     1      28.287  19.593  26.967  0.00  0.00    -0.225 NA
ATOM      9  C   UNL     1      27.917  19.693  25.673  0.00  0.00    +0.102 A 
ENDROOT
BRANCH   6  10
ATOM     10  C   UNL     1      29.626  19.077  29.887  0.00  0.00    +0.006 A 
ATOM     11  C   UNL     1      28.685  18.324  30.676  0.00  0.00    +0.018 A 
ATOM     12  C   UNL     1      28.013  17.145  30.193  0.00  0.00    +0.003 A 
ATOM     13  C   UNL     1      27.107  16.488  31.020  0.00  0.00    +0.021 A 
ATOM     14  C   UNL     1      26.862  16.965  32.314  0.00  0.00    +0.099 A 
ATOM     15  N   UNL     1      27.485  18.070  32.776  0.00  0.00    -0.244 NA
ATOM     16  C   UNL     1      28.386  18.740  31.963  0.00  0.00    +0.081 A 
ATOM     17  C   UNL     1      28.993  19.895  32.530  0.00  0.00    +0.019 A 
ATOM     18  C   UNL     1      29.928  20.608  31.782  0.00  0.00    +0.002 A 
ATOM     19  C   UNL     1      30.224  20.201  30.473  0.00  0.00    +0.000 A 
ENDBRANCH   6  10
BRANCH   1  23
ATOM     20  C   UNL     1      27.650  19.486  20.551  0.00  0.00    +0.048 A 
ATOM     21  C   UNL     1      26.698  19.497  21.548  0.00  0.00    +0.015 A 
ATOM     22  C   UNL     1      27.054  19.403  22.890  0.00  0.00    +0.001 A 
ATOM     23  C   UNL     1      28.384  19.283  23.286  0.00  0.00    +0.003 A 
ATOM     24  C   UNL     1      29.351  19.311  22.278  0.00  0.00    +0.001 A 
ATOM     25  C   UNL     1      28.986  19.417  20.943  0.00  0.00    +0.015 A 
BRANCH  20  30
ATOM     26  C   UNL     1      25.526  19.350  17.357  0.00  0.00    +0.110 C 
ATOM     27  N   UNL     1      26.541  19.014  16.397  0.00  0.00    -0.214 NA
ATOM     28  C   UNL     1      27.847  19.523  16.767  0.00  0.00    +0.110 C 
ATOM     29  C   UNL     1      28.231  19.217  18.212  0.00  0.00    +0.110 C 
ATOM     30  N   UNL     1      27.245  19.623  19.185  0.00  0.00    -0.305 N 
ATOM     31  C   UNL     1      25.951  19.116  18.803  0.00  0.00    +0.110 C 
ENDBRANCH  20  30
ENDBRANCH   1  23
TORSDOF 3
ENDMDL
