MODEL 1
REMARK VINA RESULT:      -6.0      0.000      0.000
REMARK  Name = 4BGG_844.pdb
REMARK  6 active torsions:
REMARK  status: ('A' for Active; 'I' for Inactive)
REMARK    1  A    between atoms: _2  and  _3
REMARK    2  A    between atoms: _4  and  _5
REMARK    3  A    between atoms: _7  and  _29
REMARK    4  A    between atoms: _9  and  _11
REMARK    5  A    between atoms: _13  and  _17
REMARK    6  A    between atoms: _20  and  _23
REMARK                            x       y       z     vdW  Elec       q    Type
REMARK                         _______ _______ _______ _____ _____    ______ ____
ROOT
ATOM      1  C   UNL     1       7.926  34.257  31.501  0.00  0.00    +0.019 A 
ATOM      2  C   UNL     1       6.746  34.563  32.178  0.00  0.00    +0.099 A 
ATOM      3  N   UNL     1       5.903  35.422  31.632  0.00  0.00    -0.242 NA
ATOM      4  C   UNL     1       6.111  36.036  30.427  0.00  0.00    +0.099 A 
ATOM      5  C   UNL     1       7.286  35.753  29.723  0.00  0.00    +0.019 A 
ATOM      6  C   UNL     1       8.190  34.852  30.242  0.00  0.00    +0.003 A 
ENDROOT
BRANCH   1   9
ATOM      7  C   UNL     1      10.976  31.915  31.779  0.00  0.00    +0.175 A 
ATOM      8  C   UNL     1      10.023  32.772  31.228  0.00  0.00    +0.040 A 
ATOM      9  C   UNL     1       8.969  33.273  32.067  0.00  0.00    +0.008 A 
ATOM     10  C   UNL     1       8.907  32.880  33.420  0.00  0.00    +0.040 A 
ATOM     11  C   UNL     1       9.882  31.944  33.947  0.00  0.00    +0.175 A 
ATOM     12  C   UNL     1      10.920  31.505  33.135  0.00  0.00    +0.206 A 
BRANCH   7  14
ATOM     13  C   UNL     1      11.725  31.325  29.683  0.00  0.00    +0.253 C 
ATOM     14  O   UNL     1      12.008  31.391  31.019  0.00  0.00    -0.468 OA
ENDBRANCH   7  14
BRANCH  11  15
ATOM     15  O   UNL     1       9.904  31.509  35.284  0.00  0.00    -0.468 OA
ATOM     16  C   UNL     1       8.802  30.956  35.852  0.00  0.00    +0.253 C 
ENDBRANCH  11  15
BRANCH  12  17
ATOM     17  O   UNL     1      11.903  30.625  33.599  0.00  0.00    -0.465 OA
ATOM     18  C   UNL     1      13.009  31.252  34.195  0.00  0.00    +0.253 C 
ENDBRANCH  12  17
ENDBRANCH   1   9
BRANCH   5  19
ATOM     19  C   UNL     1       7.555  36.353  28.414  0.00  0.00    +0.002 A 
ATOM     20  C   UNL     1       8.585  35.869  27.614  0.00  0.00    +0.001 A 
ATOM     21  C   UNL     1       8.848  36.426  26.292  0.00  0.00    +0.015 A 
ATOM     22  C   UNL     1       8.105  37.439  25.820  0.00  0.00    +0.048 A 
ATOM     23  C   UNL     1       7.037  37.942  26.627  0.00  0.00    +0.015 A 
ATOM     24  C   UNL     1       6.747  37.368  27.935  0.00  0.00    +0.001 A 
BRANCH  22  25
ATOM     25  N   UNL     1       8.371  37.967  24.547  0.00  0.00    -0.305 N 
ATOM     26  C   UNL     1       7.484  37.625  23.492  0.00  0.00    +0.110 C 
ATOM     27  C   UNL     1       7.638  38.586  22.319  0.00  0.00    +0.110 C 
ATOM     28  N   UNL     1       8.919  38.401  21.699  0.00  0.00    -0.214 NA
ATOM     29  C   UNL     1      10.001  38.308  22.627  0.00  0.00    +0.110 C 
ATOM     30  C   UNL     1       9.600  38.580  24.089  0.00  0.00    +0.110 C 
ENDBRANCH  22  25
ENDBRANCH   5  19
TORSDOF 6
ENDMDL
MODEL 2
REMARK VINA RESULT:      -6.0      3.708      6.953
REMARK  Name = 4BGG_844.pdb
REMARK  6 active torsions:
REMARK  status: ('A' for Active; 'I' for Inactive)
REMARK    1  A    between atoms: _2  and  _3
REMARK    2  A    between atoms: _4  and  _5
REMARK    3  A    between atoms: _7  and  _29
REMARK    4  A    between atoms: _9  and  _11
REMARK    5  A    between atoms: _13  and  _17
REMARK    6  A    between atoms: _20  and  _23
REMARK                            x       y       z     vdW  Elec       q    Type
REMARK                         _______ _______ _______ _____ _____    ______ ____
ROOT
ATOM      1  C   UNL     1       7.188  38.396  25.754  0.00  0.00    +0.019 A 
ATOM      2  C   UNL     1       6.600  39.615  26.091  0.00  0.00    +0.099 A 
ATOM      3  N   UNL     1       6.246  40.441  25.122  0.00  0.00    -0.242 NA
ATOM      4  C   UNL     1       6.414  40.172  23.790  0.00  0.00    +0.099 A 
ATOM      5  C   UNL     1       7.001  38.959  23.418  0.00  0.00    +0.019 A 
ATOM      6  C   UNL     1       7.374  38.057  24.391  0.00  0.00    +0.003 A 
ENDROOT
BRANCH   1   9
ATOM      7  C   UNL     1       9.328  35.867  27.725  0.00  0.00    +0.175 A 
ATOM      8  C   UNL     1       8.931  36.754  26.724  0.00  0.00    +0.040 A 
ATOM      9  C   UNL     1       7.639  37.377  26.819  0.00  0.00    +0.008 A 
ATOM     10  C   UNL     1       6.794  37.071  27.907  0.00  0.00    +0.040 A 
ATOM     11  C   UNL     1       7.216  36.102  28.900  0.00  0.00    +0.175 A 
ATOM     12  C   UNL     1       8.485  35.544  28.818  0.00  0.00    +0.206 A 
BRANCH   7  14
ATOM     13  C   UNL     1      11.619  36.086  27.649  0.00  0.00    +0.253 C 
ATOM     14  O   UNL     1      10.555  35.227  27.685  0.00  0.00    -0.468 OA
ENDBRANCH   7  14
BRANCH  11  15
ATOM     15  O   UNL     1       6.445  35.748  30.022  0.00  0.00    -0.468 OA
ATOM     16  C   UNL     1       5.223  36.303  30.228  0.00  0.00    +0.253 C 
ENDBRANCH  11  15
BRANCH  12  17
ATOM     17  O   UNL     1       8.953  34.627  29.765  0.00  0.00    -0.465 OA
ATOM     18  C   UNL     1       9.565  35.210  30.886  0.00  0.00    +0.253 C 
ENDBRANCH  12  17
ENDBRANCH   1   9
BRANCH   5  19
ATOM     19  C   UNL     1       7.181  38.598  22.010  0.00  0.00    +0.002 A 
ATOM     20  C   UNL     1       6.816  39.486  21.002  0.00  0.00    +0.001 A 
ATOM     21  C   UNL     1       7.019  39.164  19.594  0.00  0.00    +0.015 A 
ATOM     22  C   UNL     1       7.551  37.986  19.235  0.00  0.00    +0.048 A 
ATOM     23  C   UNL     1       7.939  37.066  20.259  0.00  0.00    +0.015 A 
ATOM     24  C   UNL     1       7.771  37.395  21.669  0.00  0.00    +0.001 A 
BRANCH  22  25
ATOM     25  N   UNL     1       7.738  37.689  17.876  0.00  0.00    -0.305 N 
ATOM     26  C   UNL     1       8.836  38.298  17.212  0.00  0.00    +0.110 C 
ATOM     27  C   UNL     1       9.159  37.568  15.913  0.00  0.00    +0.110 C 
ATOM     28  N   UNL     1       8.098  37.760  14.966  0.00  0.00    -0.214 NA
ATOM     29  C   UNL     1       6.793  37.583  15.519  0.00  0.00    +0.110 C 
ATOM     30  C   UNL     1       6.789  37.073  16.972  0.00  0.00    +0.110 C 
ENDBRANCH  22  25
ENDBRANCH   5  19
TORSDOF 6
ENDMDL
MODEL 3
REMARK VINA RESULT:      -5.9      5.377     10.280
REMARK  Name = 4BGG_844.pdb
REMARK  6 active torsions:
REMARK  status: ('A' for Active; 'I' for Inactive)
REMARK    1  A    between atoms: _2  and  _3
REMARK    2  A    between atoms: _4  and  _5
REMARK    3  A    between atoms: _7  and  _29
REMARK    4  A    between atoms: _9  and  _11
REMARK    5  A    between atoms: _13  and  _17
REMARK    6  A    between atoms: _20  and  _23
REMARK                            x       y       z     vdW  Elec       q    Type
REMARK                         _______ _______ _______ _____ _____    ______ ____
ROOT
ATOM      1  C   UNL     1       6.812  33.138  32.948  0.00  0.00    +0.019 A 
ATOM      2  C   UNL     1       6.192  34.375  32.776  0.00  0.00    +0.099 A 
ATOM      3  N   UNL     1       4.889  34.468  32.974  0.00  0.00    -0.242 NA
ATOM      4  C   UNL     1       4.097  33.416  33.348  0.00  0.00    +0.099 A 
ATOM      5  C   UNL     1       4.687  32.161  33.527  0.00  0.00    +0.019 A 
ATOM      6  C   UNL     1       6.045  32.016  33.348  0.00  0.00    +0.003 A 
ENDROOT
BRANCH   1   9
ATOM      7  C   UNL     1      10.502  32.193  33.543  0.00  0.00    +0.175 A 
ATOM      8  C   UNL     1       9.144  32.402  33.783  0.00  0.00    +0.040 A 
ATOM      9  C   UNL     1       8.325  32.937  32.730  0.00  0.00    +0.008 A 
ATOM     10  C   UNL     1       8.908  33.255  31.485  0.00  0.00    +0.040 A 
ATOM     11  C   UNL     1      10.333  33.077  31.287  0.00  0.00    +0.175 A 
ATOM     12  C   UNL     1      11.101  32.517  32.300  0.00  0.00    +0.206 A 
BRANCH   7  14
ATOM     13  C   UNL     1      10.813  30.637  35.211  0.00  0.00    +0.253 C 
ATOM     14  O   UNL     1      11.345  31.691  34.520  0.00  0.00    -0.468 OA
ENDBRANCH   7  14
BRANCH  11  15
ATOM     15  O   UNL     1      10.994  33.355  30.077  0.00  0.00    -0.468 OA
ATOM     16  C   UNL     1      11.180  34.635  29.666  0.00  0.00    +0.253 C 
ENDBRANCH  11  15
BRANCH  12  17
ATOM     17  O   UNL     1      12.475  32.297  32.152  0.00  0.00    -0.465 OA
ATOM     18  C   UNL     1      12.813  31.009  31.706  0.00  0.00    +0.253 C 
ENDBRANCH  12  17
ENDBRANCH   1   9
BRANCH   5  19
ATOM     19  C   UNL     1       3.900  31.002  33.956  0.00  0.00    +0.002 A 
ATOM     20  C   UNL     1       3.703  29.925  33.097  0.00  0.00    +0.001 A 
ATOM     21  C   UNL     1       2.954  28.745  33.514  0.00  0.00    +0.015 A 
ATOM     22  C   UNL     1       2.419  28.678  34.743  0.00  0.00    +0.048 A 
ATOM     23  C   UNL     1       2.619  29.774  35.640  0.00  0.00    +0.015 A 
ATOM     24  C   UNL     1       3.395  30.942  35.242  0.00  0.00    +0.001 A 
BRANCH  22  25
ATOM     25  N   UNL     1       1.698  27.538  35.130  0.00  0.00    -0.305 N 
ATOM     26  C   UNL     1       2.436  26.421  35.605  0.00  0.00    +0.110 C 
ATOM     27  C   UNL     1       1.535  25.461  36.372  0.00  0.00    +0.110 C 
ATOM     28  N   UNL     1       0.603  24.839  35.474  0.00  0.00    -0.214 NA
ATOM     29  C   UNL     1      -0.019  25.751  34.567  0.00  0.00    +0.110 C 
ATOM     30  C   UNL     1       0.314  27.230  34.835  0.00  0.00    +0.110 C 
ENDBRANCH  22  25
ENDBRANCH   5  19
TORSDOF 6
ENDMDL
MODEL 4
REMARK VINA RESULT:      -5.9      5.388     10.069
REMARK  Name = 4BGG_844.pdb
REMARK  6 active torsions:
REMARK  status: ('A' for Active; 'I' for Inactive)
REMARK    1  A    between atoms: _2  and  _3
REMARK    2  A    between atoms: _4  and  _5
REMARK    3  A    between atoms: _7  and  _29
REMARK    4  A    between atoms: _9  and  _11
REMARK    5  A    between atoms: _13  and  _17
REMARK    6  A    between atoms: _20  and  _23
REMARK                            x       y       z     vdW  Elec       q    Type
REMARK                         _______ _______ _______ _____ _____    ______ ____
ROOT
ATOM      1  C   UNL     1       6.856  33.097  32.976  0.00  0.00    +0.019 A 
ATOM      2  C   UNL     1       6.254  34.341  32.789  0.00  0.00    +0.099 A 
ATOM      3  N   UNL     1       4.950  34.451  32.970  0.00  0.00    -0.242 NA
ATOM      4  C   UNL     1       4.139  33.412  33.339  0.00  0.00    +0.099 A 
ATOM      5  C   UNL     1       4.711  32.150  33.534  0.00  0.00    +0.019 A 
ATOM      6  C   UNL     1       6.069  31.987  33.373  0.00  0.00    +0.003 A 
ENDROOT
BRANCH   1   9
ATOM      7  C   UNL     1      10.365  33.008  31.382  0.00  0.00    +0.175 A 
ATOM      8  C   UNL     1       8.987  33.179  31.518  0.00  0.00    +0.040 A 
ATOM      9  C   UNL     1       8.369  32.875  32.779  0.00  0.00    +0.008 A 
ATOM     10  C   UNL     1       9.157  32.397  33.847  0.00  0.00    +0.040 A 
ATOM     11  C   UNL     1      10.578  32.178  33.655  0.00  0.00    +0.175 A 
ATOM     12  C   UNL     1      11.167  32.519  32.444  0.00  0.00    +0.206 A 
BRANCH   7  14
ATOM     13  C   UNL     1      11.084  34.605  29.888  0.00  0.00    +0.253 C 
ATOM     14  O   UNL     1      11.017  33.272  30.190  0.00  0.00    -0.468 OA
ENDBRANCH   7  14
BRANCH  11  15
ATOM     15  O   UNL     1      11.440  31.717  34.666  0.00  0.00    -0.468 OA
ATOM     16  C   UNL     1      11.307  30.466  35.175  0.00  0.00    +0.253 C 
ENDBRANCH  11  15
BRANCH  12  17
ATOM     17  O   UNL     1      12.538  32.355  32.215  0.00  0.00    -0.465 OA
ATOM     18  C   UNL     1      12.908  31.062  31.812  0.00  0.00    +0.253 C 
ENDBRANCH  12  17
ENDBRANCH   1   9
BRANCH   5  19
ATOM     19  C   UNL     1       3.904  31.004  33.960  0.00  0.00    +0.002 A 
ATOM     20  C   UNL     1       3.720  29.917  33.112  0.00  0.00    +0.001 A 
ATOM     21  C   UNL     1       2.951  28.749  33.527  0.00  0.00    +0.015 A 
ATOM     22  C   UNL     1       2.384  28.705  34.743  0.00  0.00    +0.048 A 
ATOM     23  C   UNL     1       2.571  29.812  35.629  0.00  0.00    +0.015 A 
ATOM     24  C   UNL     1       3.366  30.967  35.233  0.00  0.00    +0.001 A 
BRANCH  22  25
ATOM     25  N   UNL     1       1.644  27.576  35.128  0.00  0.00    -0.305 N 
ATOM     26  C   UNL     1       2.365  26.437  35.579  0.00  0.00    +0.110 C 
ATOM     27  C   UNL     1       1.454  25.488  36.350  0.00  0.00    +0.110 C 
ATOM     28  N   UNL     1       0.496  24.898  35.459  0.00  0.00    -0.214 NA
ATOM     29  C   UNL     1      -0.120  25.833  34.572  0.00  0.00    +0.110 C 
ATOM     30  C   UNL     1       0.250  27.301  34.851  0.00  0.00    +0.110 C 
ENDBRANCH  22  25
ENDBRANCH   5  19
TORSDOF 6
ENDMDL
MODEL 5
REMARK VINA RESULT:      -5.9      5.208     11.119
REMARK  Name = 4BGG_844.pdb
REMARK  6 active torsions:
REMARK  status: ('A' for Active; 'I' for Inactive)
REMARK    1  A    between atoms: _2  and  _3
REMARK    2  A    between atoms: _4  and  _5
REMARK    3  A    between atoms: _7  and  _29
REMARK    4  A    between atoms: _9  and  _11
REMARK    5  A    between atoms: _13  and  _17
REMARK    6  A    between atoms: _20  and  _23
REMARK                            x       y       z     vdW  Elec       q    Type
REMARK                         _______ _______ _______ _____ _____    ______ ____
ROOT
ATOM      1  C   UNL     1       7.619  38.393  22.628  0.00  0.00    +0.019 A 
ATOM      2  C   UNL     1       6.786  39.510  22.687  0.00  0.00    +0.099 A 
ATOM      3  N   UNL     1       6.276  39.863  23.854  0.00  0.00    -0.242 NA
ATOM      4  C   UNL     1       6.520  39.199  25.026  0.00  0.00    +0.099 A 
ATOM      5  C   UNL     1       7.350  38.073  25.001  0.00  0.00    +0.019 A 
ATOM      6  C   UNL     1       7.918  37.674  23.811  0.00  0.00    +0.003 A 
ENDROOT
BRANCH   1   9
ATOM      7  C   UNL     1      10.207  37.221  20.022  0.00  0.00    +0.175 A 
ATOM      8  C   UNL     1       9.670  37.702  21.216  0.00  0.00    +0.040 A 
ATOM      9  C   UNL     1       8.250  37.905  21.308  0.00  0.00    +0.008 A 
ATOM     10  C   UNL     1       7.431  37.632  20.192  0.00  0.00    +0.040 A 
ATOM     11  C   UNL     1       8.028  37.186  18.948  0.00  0.00    +0.175 A 
ATOM     12  C   UNL     1       9.396  36.951  18.890  0.00  0.00    +0.206 A 
BRANCH   7  14
ATOM     13  C   UNL     1      12.334  37.780  20.702  0.00  0.00    +0.253 C 
ATOM     14  O   UNL     1      11.567  37.015  19.867  0.00  0.00    -0.468 OA
ENDBRANCH   7  14
BRANCH  11  15
ATOM     15  O   UNL     1       7.288  36.878  17.793  0.00  0.00    -0.468 OA
ATOM     16  C   UNL     1       6.823  37.863  16.983  0.00  0.00    +0.253 C 
ENDBRANCH  11  15
BRANCH  12  17
ATOM     17  O   UNL     1      10.020  36.494  17.724  0.00  0.00    -0.465 OA
ATOM     18  C   UNL     1      10.503  37.511  16.886  0.00  0.00    +0.253 C 
ENDBRANCH  12  17
ENDBRANCH   1   9
BRANCH   5  19
ATOM     19  C   UNL     1       7.675  37.337  26.225  0.00  0.00    +0.002 A 
ATOM     20  C   UNL     1       8.818  36.547  26.291  0.00  0.00    +0.001 A 
ATOM     21  C   UNL     1       9.182  35.835  27.511  0.00  0.00    +0.015 A 
ATOM     22  C   UNL     1       8.405  35.913  28.602  0.00  0.00    +0.048 A 
ATOM     23  C   UNL     1       7.230  36.727  28.553  0.00  0.00    +0.015 A 
ATOM     24  C   UNL     1       6.879  37.470  27.348  0.00  0.00    +0.001 A 
BRANCH  22  25
ATOM     25  N   UNL     1       8.766  35.219  29.768  0.00  0.00    -0.305 N 
ATOM     26  C   UNL     1      10.104  34.755  29.872  0.00  0.00    +0.110 C 
ATOM     27  C   UNL     1      10.453  34.423  31.318  0.00  0.00    +0.110 C 
ATOM     28  N   UNL     1       9.708  33.276  31.752  0.00  0.00    -0.214 NA
ATOM     29  C   UNL     1       8.325  33.319  31.397  0.00  0.00    +0.110 C 
ATOM     30  C   UNL     1       7.880  34.650  30.761  0.00  0.00    +0.110 C 
ENDBRANCH  22  25
ENDBRANCH   5  19
TORSDOF 6
ENDMDL
MODEL 6
REMARK VINA RESULT:      -5.9      5.250     11.149
REMARK  Name = 4BGG_844.pdb
REMARK  6 active torsions:
REMARK  status: ('A' for Active; 'I' for Inactive)
REMARK    1  A    between atoms: _2  and  _3
REMARK    2  A    between atoms: _4  and  _5
REMARK    3  A    between atoms: _7  and  _29
REMARK    4  A    between atoms: _9  and  _11
REMARK    5  A    between atoms: _13  and  _17
REMARK    6  A    between atoms: _20  and  _23
REMARK                            x       y       z     vdW  Elec       q    Type
REMARK                         _______ _______ _______ _____ _____    ______ ____
ROOT
ATOM      1  C   UNL     1       7.614  38.383  22.563  0.00  0.00    +0.019 A 
ATOM      2  C   UNL     1       6.779  39.498  22.620  0.00  0.00    +0.099 A 
ATOM      3  N   UNL     1       6.270  39.855  23.786  0.00  0.00    -0.242 NA
ATOM      4  C   UNL     1       6.518  39.198  24.960  0.00  0.00    +0.099 A 
ATOM      5  C   UNL     1       7.351  38.074  24.939  0.00  0.00    +0.019 A 
ATOM      6  C   UNL     1       7.918  37.671  23.749  0.00  0.00    +0.003 A 
ENDROOT
BRANCH   1   9
ATOM      7  C   UNL     1       8.023  37.255  18.899  0.00  0.00    +0.175 A 
ATOM      8  C   UNL     1       7.420  37.660  20.090  0.00  0.00    +0.040 A 
ATOM      9  C   UNL     1       8.244  37.891  21.245  0.00  0.00    +0.008 A 
ATOM     10  C   UNL     1       9.638  37.690  21.159  0.00  0.00    +0.040 A 
ATOM     11  C   UNL     1      10.226  37.215  19.922  0.00  0.00    +0.175 A 
ATOM     12  C   UNL     1       9.421  37.041  18.803  0.00  0.00    +0.206 A 
BRANCH   7  14
ATOM     13  C   UNL     1       6.738  38.132  17.202  0.00  0.00    +0.253 C 
ATOM     14  O   UNL     1       7.282  37.006  17.757  0.00  0.00    -0.468 OA
ENDBRANCH   7  14
BRANCH  11  15
ATOM     15  O   UNL     1      11.604  37.001  19.744  0.00  0.00    -0.468 OA
ATOM     16  C   UNL     1      12.510  37.594  20.563  0.00  0.00    +0.253 C 
ENDBRANCH  11  15
BRANCH  12  17
ATOM     17  O   UNL     1       9.940  36.611  17.577  0.00  0.00    -0.465 OA
ATOM     18  C   UNL     1      10.425  37.644  16.759  0.00  0.00    +0.253 C 
ENDBRANCH  12  17
ENDBRANCH   1   9
BRANCH   5  19
ATOM     19  C   UNL     1       7.680  37.345  26.166  0.00  0.00    +0.002 A 
ATOM     20  C   UNL     1       8.833  36.569  26.237  0.00  0.00    +0.001 A 
ATOM     21  C   UNL     1       9.201  35.863  27.460  0.00  0.00    +0.015 A 
ATOM     22  C   UNL     1       8.419  35.934  28.548  0.00  0.00    +0.048 A 
ATOM     23  C   UNL     1       7.235  36.735  28.493  0.00  0.00    +0.015 A 
ATOM     24  C   UNL     1       6.879  37.470  27.286  0.00  0.00    +0.001 A 
BRANCH  22  25
ATOM     25  N   UNL     1       8.784  35.248  29.717  0.00  0.00    -0.305 N 
ATOM     26  C   UNL     1      10.135  34.825  29.839  0.00  0.00    +0.110 C 
ATOM     27  C   UNL     1      10.473  34.499  31.289  0.00  0.00    +0.110 C 
ATOM     28  N   UNL     1       9.758  33.327  31.707  0.00  0.00    -0.214 NA
ATOM     29  C   UNL     1       8.379  33.328  31.332  0.00  0.00    +0.110 C 
ATOM     30  C   UNL     1       7.902  34.646  30.695  0.00  0.00    +0.110 C 
ENDBRANCH  22  25
ENDBRANCH   5  19
TORSDOF 6
ENDMDL
MODEL 7
REMARK VINA RESULT:      -5.8      0.441      2.495
REMARK  Name = 4BGG_844.pdb
REMARK  6 active torsions:
REMARK  status: ('A' for Active; 'I' for Inactive)
REMARK    1  A    between atoms: _2  and  _3
REMARK    2  A    between atoms: _4  and  _5
REMARK    3  A    between atoms: _7  and  _29
REMARK    4  A    between atoms: _9  and  _11
REMARK    5  A    between atoms: _13  and  _17
REMARK    6  A    between atoms: _20  and  _23
REMARK                            x       y       z     vdW  Elec       q    Type
REMARK                         _______ _______ _______ _____ _____    ______ ____
ROOT
ATOM      1  C   UNL     1       7.847  34.296  31.578  0.00  0.00    +0.019 A 
ATOM      2  C   UNL     1       6.652  34.629  32.214  0.00  0.00    +0.099 A 
ATOM      3  N   UNL     1       5.821  35.462  31.613  0.00  0.00    -0.242 NA
ATOM      4  C   UNL     1       6.057  36.023  30.387  0.00  0.00    +0.099 A 
ATOM      5  C   UNL     1       7.247  35.711  29.723  0.00  0.00    +0.019 A 
ATOM      6  C   UNL     1       8.139  34.835  30.301  0.00  0.00    +0.003 A 
ENDROOT
BRANCH   1   9
ATOM      7  C   UNL     1       9.716  32.102  34.139  0.00  0.00    +0.175 A 
ATOM      8  C   UNL     1       8.795  33.003  33.605  0.00  0.00    +0.040 A 
ATOM      9  C   UNL     1       8.878  33.338  32.210  0.00  0.00    +0.008 A 
ATOM     10  C   UNL     1       9.893  32.768  31.413  0.00  0.00    +0.040 A 
ATOM     11  C   UNL     1      10.869  31.878  32.013  0.00  0.00    +0.175 A 
ATOM     12  C   UNL     1      10.746  31.529  33.352  0.00  0.00    +0.206 A 
BRANCH   7  14
ATOM     13  C   UNL     1       9.753  32.818  36.327  0.00  0.00    +0.253 C 
ATOM     14  O   UNL     1       9.695  31.747  35.477  0.00  0.00    -0.468 OA
ENDBRANCH   7  14
BRANCH  11  15
ATOM     15  O   UNL     1      11.904  31.255  31.293  0.00  0.00    -0.468 OA
ATOM     16  C   UNL     1      11.790  31.045  29.956  0.00  0.00    +0.253 C 
ENDBRANCH  11  15
BRANCH  12  17
ATOM     17  O   UNL     1      11.643  30.653  33.973  0.00  0.00    -0.465 OA
ATOM     18  C   UNL     1      12.823  31.259  34.433  0.00  0.00    +0.253 C 
ENDBRANCH  12  17
ENDBRANCH   1   9
BRANCH   5  19
ATOM     19  C   UNL     1       7.545  36.254  28.395  0.00  0.00    +0.002 A 
ATOM     20  C   UNL     1       6.768  37.277  27.861  0.00  0.00    +0.001 A 
ATOM     21  C   UNL     1       7.066  37.858  26.557  0.00  0.00    +0.015 A 
ATOM     22  C   UNL     1       8.098  37.403  25.829  0.00  0.00    +0.048 A 
ATOM     23  C   UNL     1       8.911  36.357  26.368  0.00  0.00    +0.015 A 
ATOM     24  C   UNL     1       8.639  35.795  27.685  0.00  0.00    +0.001 A 
BRANCH  22  25
ATOM     25  N   UNL     1       8.372  37.970  24.575  0.00  0.00    -0.305 N 
ATOM     26  C   UNL     1       7.461  37.706  23.517  0.00  0.00    +0.110 C 
ATOM     27  C   UNL     1       7.642  38.705  22.381  0.00  0.00    +0.110 C 
ATOM     28  N   UNL     1       8.908  38.494  21.739  0.00  0.00    -0.214 NA
ATOM     29  C   UNL     1       9.995  38.322  22.650  0.00  0.00    +0.110 C 
ATOM     30  C   UNL     1       9.620  38.552  24.126  0.00  0.00    +0.110 C 
ENDBRANCH  22  25
ENDBRANCH   5  19
TORSDOF 6
ENDMDL
MODEL 8
REMARK VINA RESULT:      -5.8      3.665      7.135
REMARK  Name = 4BGG_844.pdb
REMARK  6 active torsions:
REMARK  status: ('A' for Active; 'I' for Inactive)
REMARK    1  A    between atoms: _2  and  _3
REMARK    2  A    between atoms: _4  and  _5
REMARK    3  A    between atoms: _7  and  _29
REMARK    4  A    between atoms: _9  and  _11
REMARK    5  A    between atoms: _13  and  _17
REMARK    6  A    between atoms: _20  and  _23
REMARK                            x       y       z     vdW  Elec       q    Type
REMARK                         _______ _______ _______ _____ _____    ______ ____
ROOT
ATOM      1  C   UNL     1       7.216  38.523  25.885  0.00  0.00    +0.019 A 
ATOM      2  C   UNL     1       6.599  39.720  26.249  0.00  0.00    +0.099 A 
ATOM      3  N   UNL     1       6.248  40.570  25.300  0.00  0.00    -0.242 NA
ATOM      4  C   UNL     1       6.447  40.347  23.964  0.00  0.00    +0.099 A 
ATOM      5  C   UNL     1       7.064  39.157  23.565  0.00  0.00    +0.019 A 
ATOM      6  C   UNL     1       7.435  38.232  24.516  0.00  0.00    +0.003 A 
ENDROOT
BRANCH   1   9
ATOM      7  C   UNL     1       7.251  36.208  28.967  0.00  0.00    +0.175 A 
ATOM      8  C   UNL     1       6.837  37.187  28.064  0.00  0.00    +0.040 A 
ATOM      9  C   UNL     1       7.666  37.479  26.926  0.00  0.00    +0.008 A 
ATOM     10  C   UNL     1       8.882  36.786  26.752  0.00  0.00    +0.040 A 
ATOM     11  C   UNL     1       9.309  35.814  27.739  0.00  0.00    +0.175 A 
ATOM     12  C   UNL     1       8.476  35.511  28.808  0.00  0.00    +0.206 A 
BRANCH   7  14
ATOM     13  C   UNL     1       5.251  36.440  30.084  0.00  0.00    +0.253 C 
ATOM     14  O   UNL     1       6.503  35.889  30.088  0.00  0.00    -0.468 OA
ENDBRANCH   7  14
BRANCH  11  15
ATOM     15  O   UNL     1      10.498  35.069  27.638  0.00  0.00    -0.468 OA
ATOM     16  C   UNL     1      11.686  35.685  27.418  0.00  0.00    +0.253 C 
ENDBRANCH  11  15
BRANCH  12  17
ATOM     17  O   UNL     1       8.825  34.561  29.774  0.00  0.00    -0.465 OA
ATOM     18  C   UNL     1       9.644  35.052  30.802  0.00  0.00    +0.253 C 
ENDBRANCH  12  17
ENDBRANCH   1   9
BRANCH   5  19
ATOM     19  C   UNL     1       7.277  38.846  22.150  0.00  0.00    +0.002 A 
ATOM     20  C   UNL     1       8.097  37.785  21.777  0.00  0.00    +0.001 A 
ATOM     21  C   UNL     1       8.296  37.433  20.375  0.00  0.00    +0.015 A 
ATOM     22  C   UNL     1       7.699  38.141  19.405  0.00  0.00    +0.048 A 
ATOM     23  C   UNL     1       6.847  39.229  19.772  0.00  0.00    +0.015 A 
ATOM     24  C   UNL     1       6.617  39.566  21.172  0.00  0.00    +0.001 A 
BRANCH  22  25
ATOM     25  N   UNL     1       7.901  37.792  18.060  0.00  0.00    -0.305 N 
ATOM     26  C   UNL     1       9.004  38.380  17.384  0.00  0.00    +0.110 C 
ATOM     27  C   UNL     1       9.344  37.601  16.119  0.00  0.00    +0.110 C 
ATOM     28  N   UNL     1       8.292  37.752  15.154  0.00  0.00    -0.214 NA
ATOM     29  C   UNL     1       6.982  37.592  15.699  0.00  0.00    +0.110 C 
ATOM     30  C   UNL     1       6.964  37.138  17.171  0.00  0.00    +0.110 C 
ENDBRANCH  22  25
ENDBRANCH   5  19
TORSDOF 6
ENDMDL
MODEL 9
REMARK VINA RESULT:      -5.6      4.722     10.127
REMARK  Name = 4BGG_844.pdb
REMARK  6 active torsions:
REMARK  status: ('A' for Active; 'I' for Inactive)
REMARK    1  A    between atoms: _2  and  _3
REMARK    2  A    between atoms: _4  and  _5
REMARK    3  A    between atoms: _7  and  _29
REMARK    4  A    between atoms: _9  and  _11
REMARK    5  A    between atoms: _13  and  _17
REMARK    6  A    between atoms: _20  and  _23
REMARK                            x       y       z     vdW  Elec       q    Type
REMARK                         _______ _______ _______ _____ _____    ______ ____
ROOT
ATOM      1  C   UNL     1       7.944  37.793  26.574  0.00  0.00    +0.019 A 
ATOM      2  C   UNL     1       7.108  38.702  27.222  0.00  0.00    +0.099 A 
ATOM      3  N   UNL     1       6.851  38.528  28.507  0.00  0.00    -0.242 NA
ATOM      4  C   UNL     1       7.363  37.503  29.255  0.00  0.00    +0.099 A 
ATOM      5  C   UNL     1       8.203  36.572  28.635  0.00  0.00    +0.019 A 
ATOM      6  C   UNL     1       8.514  36.720  27.301  0.00  0.00    +0.003 A 
ENDROOT
BRANCH   1   9
ATOM      7  C   UNL     1       7.661  37.685  22.731  0.00  0.00    +0.175 A 
ATOM      8  C   UNL     1       7.335  37.524  24.077  0.00  0.00    +0.040 A 
ATOM      9  C   UNL     1       8.291  37.916  25.077  0.00  0.00    +0.008 A 
ATOM     10  C   UNL     1       9.541  38.438  24.682  0.00  0.00    +0.040 A 
ATOM     11  C   UNL     1       9.869  38.540  23.273  0.00  0.00    +0.175 A 
ATOM     12  C   UNL     1       8.917  38.200  22.321  0.00  0.00    +0.206 A 
BRANCH   7  14
ATOM     13  C   UNL     1       5.668  38.098  21.656  0.00  0.00    +0.253 C 
ATOM     14  O   UNL     1       6.789  37.316  21.722  0.00  0.00    -0.468 OA
ENDBRANCH   7  14
BRANCH  11  15
ATOM     15  O   UNL     1      11.083  39.061  22.791  0.00  0.00    -0.468 OA
ATOM     16  C   UNL     1      12.270  38.631  23.290  0.00  0.00    +0.253 C 
ENDBRANCH  11  15
BRANCH  12  17
ATOM     17  O   UNL     1       9.171  38.306  20.949  0.00  0.00    -0.465 OA
ATOM     18  C   UNL     1       8.885  39.567  20.401  0.00  0.00    +0.253 C 
ENDBRANCH  12  17
ENDBRANCH   1   9
BRANCH   5  19
ATOM     19  C   UNL     1       8.808  35.470  29.388  0.00  0.00    +0.002 A 
ATOM     20  C   UNL     1      10.188  35.292  29.392  0.00  0.00    +0.001 A 
ATOM     21  C   UNL     1      10.816  34.225  30.163  0.00  0.00    +0.015 A 
ATOM     22  C   UNL     1      10.068  33.372  30.879  0.00  0.00    +0.048 A 
ATOM     23  C   UNL     1       8.648  33.547  30.891  0.00  0.00    +0.015 A 
ATOM     24  C   UNL     1       8.017  34.632  30.151  0.00  0.00    +0.001 A 
BRANCH  22  25
ATOM     25  N   UNL     1      10.685  32.348  31.614  0.00  0.00    -0.305 N 
ATOM     26  C   UNL     1      10.949  32.589  32.989  0.00  0.00    +0.110 C 
ATOM     27  C   UNL     1      11.206  31.283  33.730  0.00  0.00    +0.110 C 
ATOM     28  N   UNL     1      12.443  30.704  33.289  0.00  0.00    -0.214 NA
ATOM     29  C   UNL     1      12.606  30.704  31.870  0.00  0.00    +0.110 C 
ATOM     30  C   UNL     1      11.364  31.179  31.094  0.00  0.00    +0.110 C 
ENDBRANCH  22  25
ENDBRANCH   5  19
TORSDOF 6
ENDMDL
