MODEL 1
REMARK VINA RESULT:      -7.9      0.000      0.000
REMARK  Name = 6I1S_E26.pdb
REMARK  8 active torsions:
REMARK  status: ('A' for Active; 'I' for Inactive)
REMARK    1  A    between atoms: _1  and  _2
REMARK    2  A    between atoms: _2  and  _3
REMARK    3  A    between atoms: _3  and  _4
REMARK    4  A    between atoms: _10  and  _28
REMARK    5  A    between atoms: _11  and  _27
REMARK    6  A    between atoms: _15  and  _16
REMARK    7  A    between atoms: _17  and  _18
REMARK    8  A    between atoms: _22  and  _24
REMARK                            x       y       z     vdW  Elec       q    Type
REMARK                         _______ _______ _______ _____ _____    ______ ____
ROOT
ATOM      1  C   UNL     1       6.856  16.876  16.669  0.00  0.00    +0.031 A 
ATOM      2  C   UNL     1       6.859  17.628  17.838  0.00  0.00    +0.069 A 
ATOM      3  C   UNL     1       6.845  19.012  17.742  0.00  0.00    +0.133 A 
ATOM      4  C   UNL     1       6.838  19.653  16.494  0.00  0.00    +0.107 A 
ATOM      5  C   UNL     1       6.834  21.184  16.497  0.00  0.00    +0.344 C 
ATOM      6  O   UNL     1       6.779  21.811  17.507  0.00  0.00    -0.245 OA
ATOM      7  O   UNL     1       6.945  21.842  15.266  0.00  0.00    -0.457 OA
ATOM      8  C   UNL     1       6.965  23.262  15.284  0.00  0.00    +0.180 C 
ATOM      9  C   UNL     1       8.349  23.807  15.514  0.00  0.00    +0.052 C 
ATOM     10  C   UNL     1       6.396  23.659  13.913  0.00  0.00    +0.049 C 
ATOM     11  C   UNL     1       6.337  25.175  13.758  0.00  0.00    +0.015 C 
ATOM     12  C   UNL     1       4.991  23.055  13.768  0.00  0.00    -0.017 C 
ATOM     13  C   UNL     1       4.509  22.502  12.653  0.00  0.00    +0.045 C 
ATOM     14  C   UNL     1       5.281  22.289  11.342  0.00  0.00    +0.187 C 
ATOM     15  O   UNL     1       6.304  22.832  11.064  0.00  0.00    -0.290 OA
ATOM     16  C   UNL     1       4.713  21.162  10.440  0.00  0.00    +0.213 C 
ATOM     17  C   UNL     1       4.799  19.854  11.255  0.00  0.00    +0.154 C 
ATOM     18  C   UNL     1       6.226  19.329  11.466  0.00  0.00    +0.061 C 
ATOM     19  C   UNL     1       6.318  18.740  12.884  0.00  0.00    -0.024 C 
ATOM     20  C   UNL     1       6.796  19.465  13.899  0.00  0.00    +0.005 C 
ATOM     21  C   UNL     1       6.836  18.875  15.316  0.00  0.00    -0.006 A 
ATOM     22  C   UNL     1       6.839  17.499  15.428  0.00  0.00    +0.032 A 
ENDROOT
BRANCH   1  23
ATOM     23  N   UNL     1       6.864  15.430  16.731  0.00  0.00    -0.344 N 
ATOM     24  H   UNL     1       7.600  14.990  16.596  0.00  0.00    +0.146 HD
BRANCH  23  26
ATOM     25  C   UNL     1       5.045  14.240  15.690  0.00  0.00    +0.024 C 
ATOM     26  C   UNL     1       5.629  14.725  17.023  0.00  0.00    +0.098 C 
ENDBRANCH  23  26
ENDBRANCH   1  23
BRANCH   3  27
ATOM     27  O   UNL     1       6.851  19.788  18.903  0.00  0.00    -0.506 OA
ATOM     28  H   UNL     1       6.057  20.022  19.092  0.00  0.00    +0.292 HD
ENDBRANCH   3  27
BRANCH  16  29
ATOM     29  O   UNL     1       5.419  21.091   9.261  0.00  0.00    -0.381 OA
ATOM     30  H   UNL     1       5.425  21.853   8.887  0.00  0.00    +0.210 HD
ENDBRANCH  16  29
BRANCH  17  31
ATOM     31  O   UNL     1       4.063  18.848  10.622  0.00  0.00    -0.388 OA
ATOM     32  H   UNL     1       3.571  19.193  10.020  0.00  0.00    +0.210 HD
ENDBRANCH  17  31
TORSDOF 5
ENDMDL
MODEL 2
REMARK VINA RESULT:      -7.0      2.964      8.538
REMARK  Name = 6I1S_E26.pdb
REMARK  8 active torsions:
REMARK  status: ('A' for Active; 'I' for Inactive)
REMARK    1  A    between atoms: _1  and  _2
REMARK    2  A    between atoms: _2  and  _3
REMARK    3  A    between atoms: _3  and  _4
REMARK    4  A    between atoms: _10  and  _28
REMARK    5  A    between atoms: _11  and  _27
REMARK    6  A    between atoms: _15  and  _16
REMARK    7  A    between atoms: _17  and  _18
REMARK    8  A    between atoms: _22  and  _24
REMARK                            x       y       z     vdW  Elec       q    Type
REMARK                         _______ _______ _______ _____ _____    ______ ____
ROOT
ATOM      1  C   UNL     1       6.551  19.980  13.319  0.00  0.00    +0.031 A 
ATOM      2  C   UNL     1       5.939  19.508  12.164  0.00  0.00    +0.069 A 
ATOM      3  C   UNL     1       5.692  18.148  12.048  0.00  0.00    +0.133 A 
ATOM      4  C   UNL     1       6.058  17.254  13.064  0.00  0.00    +0.107 A 
ATOM      5  C   UNL     1       5.750  15.772  12.833  0.00  0.00    +0.344 C 
ATOM      6  O   UNL     1       5.174  15.392  11.863  0.00  0.00    -0.245 OA
ATOM      7  O   UNL     1       6.212  14.850  13.782  0.00  0.00    -0.457 OA
ATOM      8  C   UNL     1       5.943  13.477  13.543  0.00  0.00    +0.180 C 
ATOM      9  C   UNL     1       6.982  12.840  12.661  0.00  0.00    +0.052 C 
ATOM     10  C   UNL     1       5.903  12.857  14.949  0.00  0.00    +0.049 C 
ATOM     11  C   UNL     1       5.613  11.361  14.883  0.00  0.00    +0.015 C 
ATOM     12  C   UNL     1       4.822  13.572  15.773  0.00  0.00    -0.017 C 
ATOM     13  C   UNL     1       4.945  13.919  17.056  0.00  0.00    +0.045 C 
ATOM     14  C   UNL     1       6.202  13.747  17.923  0.00  0.00    +0.187 C 
ATOM     15  O   UNL     1       7.121  13.043  17.648  0.00  0.00    -0.290 OA
ATOM     16  C   UNL     1       6.276  14.707  19.140  0.00  0.00    +0.213 C 
ATOM     17  C   UNL     1       6.286  16.143  18.575  0.00  0.00    +0.154 C 
ATOM     18  C   UNL     1       7.582  16.534  17.852  0.00  0.00    +0.061 C 
ATOM     19  C   UNL     1       7.215  17.405  16.638  0.00  0.00    -0.024 C 
ATOM     20  C   UNL     1       7.094  16.871  15.420  0.00  0.00    +0.005 C 
ATOM     21  C   UNL     1       6.680  17.749  14.231  0.00  0.00    -0.006 A 
ATOM     22  C   UNL     1       6.909  19.106  14.337  0.00  0.00    +0.032 A 
ENDROOT
BRANCH   1  23
ATOM     23  N   UNL     1       6.819  21.393  13.477  0.00  0.00    -0.344 N 
ATOM     24  H   UNL     1       7.426  21.782  12.992  0.00  0.00    +0.146 HD
BRANCH  23  26
ATOM     25  C   UNL     1       4.769  22.624  13.783  0.00  0.00    +0.024 C 
ATOM     26  C   UNL     1       6.064  22.154  14.457  0.00  0.00    +0.098 C 
ENDBRANCH  23  26
ENDBRANCH   1  23
BRANCH   3  27
ATOM     27  O   UNL     1       5.080  17.650  10.894  0.00  0.00    -0.506 OA
ATOM     28  H   UNL     1       5.191  18.199  10.255  0.00  0.00    +0.292 HD
ENDBRANCH   3  27
BRANCH  16  29
ATOM     29  O   UNL     1       7.393  14.436  19.896  0.00  0.00    -0.381 OA
ATOM     30  H   UNL     1       7.167  14.320  20.707  0.00  0.00    +0.210 HD
ENDBRANCH  16  29
BRANCH  17  31
ATOM     31  O   UNL     1       6.078  17.064  19.607  0.00  0.00    -0.388 OA
ATOM     32  H   UNL     1       6.773  17.103  20.094  0.00  0.00    +0.210 HD
ENDBRANCH  17  31
TORSDOF 5
ENDMDL
MODEL 3
REMARK VINA RESULT:      -7.0      2.800      4.781
REMARK  Name = 6I1S_E26.pdb
REMARK  8 active torsions:
REMARK  status: ('A' for Active; 'I' for Inactive)
REMARK    1  A    between atoms: _1  and  _2
REMARK    2  A    between atoms: _2  and  _3
REMARK    3  A    between atoms: _3  and  _4
REMARK    4  A    between atoms: _10  and  _28
REMARK    5  A    between atoms: _11  and  _27
REMARK    6  A    between atoms: _15  and  _16
REMARK    7  A    between atoms: _17  and  _18
REMARK    8  A    between atoms: _22  and  _24
REMARK                            x       y       z     vdW  Elec       q    Type
REMARK                         _______ _______ _______ _____ _____    ______ ____
ROOT
ATOM      1  C   UNL     1       6.904  16.934  16.190  0.00  0.00    +0.031 A 
ATOM      2  C   UNL     1       7.152  18.294  16.332  0.00  0.00    +0.069 A 
ATOM      3  C   UNL     1       7.005  19.118  15.226  0.00  0.00    +0.133 A 
ATOM      4  C   UNL     1       6.625  18.600  13.979  0.00  0.00    +0.107 A 
ATOM      5  C   UNL     1       6.502  19.592  12.820  0.00  0.00    +0.344 C 
ATOM      6  O   UNL     1       6.662  20.762  12.972  0.00  0.00    -0.245 OA
ATOM      7  O   UNL     1       6.239  19.080  11.543  0.00  0.00    -0.457 OA
ATOM      8  C   UNL     1       6.153  20.008  10.472  0.00  0.00    +0.180 C 
ATOM      9  C   UNL     1       7.501  20.326   9.886  0.00  0.00    +0.052 C 
ATOM     10  C   UNL     1       5.218  19.323   9.462  0.00  0.00    +0.049 C 
ATOM     11  C   UNL     1       5.003  20.196   8.230  0.00  0.00    +0.015 C 
ATOM     12  C   UNL     1       3.875  19.034  10.149  0.00  0.00    -0.017 C 
ATOM     13  C   UNL     1       3.165  17.914   9.997  0.00  0.00    +0.045 C 
ATOM     14  C   UNL     1       3.585  16.680   9.184  0.00  0.00    +0.187 C 
ATOM     15  O   UNL     1       4.455  16.671   8.372  0.00  0.00    -0.290 OA
ATOM     16  C   UNL     1       2.892  15.361   9.617  0.00  0.00    +0.213 C 
ATOM     17  C   UNL     1       3.288  15.113  11.088  0.00  0.00    +0.154 C 
ATOM     18  C   UNL     1       4.757  14.719  11.294  0.00  0.00    +0.061 C 
ATOM     19  C   UNL     1       5.260  15.386  12.585  0.00  0.00    -0.024 C 
ATOM     20  C   UNL     1       5.927  16.543  12.547  0.00  0.00    +0.005 C 
ATOM     21  C   UNL     1       6.378  17.216  13.851  0.00  0.00    -0.006 A 
ATOM     22  C   UNL     1       6.518  16.410  14.963  0.00  0.00    +0.032 A 
ENDROOT
BRANCH   1  23
ATOM     23  N   UNL     1       7.041  16.045  17.323  0.00  0.00    -0.344 N 
ATOM     24  H   UNL     1       6.776  15.219  17.268  0.00  0.00    +0.146 HD
BRANCH  23  26
ATOM     25  C   UNL     1       6.542  16.507  19.636  0.00  0.00    +0.024 C 
ATOM     26  C   UNL     1       7.627  16.547  18.553  0.00  0.00    +0.098 C 
ENDBRANCH  23  26
ENDBRANCH   1  23
BRANCH   3  27
ATOM     27  O   UNL     1       7.252  20.488  15.344  0.00  0.00    -0.506 OA
ATOM     28  H   UNL     1       7.489  20.800  14.590  0.00  0.00    +0.292 HD
ENDBRANCH   3  27
BRANCH  16  29
ATOM     29  O   UNL     1       3.271  14.328   8.793  0.00  0.00    -0.381 OA
ATOM     30  H   UNL     1       4.117  14.322   8.714  0.00  0.00    +0.210 HD
ENDBRANCH  16  29
BRANCH  17  31
ATOM     31  O   UNL     1       2.493  14.099  11.632  0.00  0.00    -0.388 OA
ATOM     32  H   UNL     1       2.619  13.378  11.198  0.00  0.00    +0.210 HD
ENDBRANCH  17  31
TORSDOF 5
ENDMDL
MODEL 4
REMARK VINA RESULT:      -6.9      3.257      7.356
REMARK  Name = 6I1S_E26.pdb
REMARK  8 active torsions:
REMARK  status: ('A' for Active; 'I' for Inactive)
REMARK    1  A    between atoms: _1  and  _2
REMARK    2  A    between atoms: _2  and  _3
REMARK    3  A    between atoms: _3  and  _4
REMARK    4  A    between atoms: _10  and  _28
REMARK    5  A    between atoms: _11  and  _27
REMARK    6  A    between atoms: _15  and  _16
REMARK    7  A    between atoms: _17  and  _18
REMARK    8  A    between atoms: _22  and  _24
REMARK                            x       y       z     vdW  Elec       q    Type
REMARK                         _______ _______ _______ _____ _____    ______ ____
ROOT
ATOM      1  C   UNL     1       6.145  22.223  13.853  0.00  0.00    +0.031 A 
ATOM      2  C   UNL     1       5.262  22.795  12.944  0.00  0.00    +0.069 A 
ATOM      3  C   UNL     1       4.698  21.990  11.965  0.00  0.00    +0.133 A 
ATOM      4  C   UNL     1       5.012  20.627  11.876  0.00  0.00    +0.107 A 
ATOM      5  C   UNL     1       4.344  19.830  10.752  0.00  0.00    +0.344 C 
ATOM      6  O   UNL     1       3.547  20.323  10.018  0.00  0.00    -0.245 OA
ATOM      7  O   UNL     1       4.733  18.496  10.573  0.00  0.00    -0.457 OA
ATOM      8  C   UNL     1       4.124  17.775   9.512  0.00  0.00    +0.180 C 
ATOM      9  C   UNL     1       4.835  17.985   8.203  0.00  0.00    +0.052 C 
ATOM     10  C   UNL     1       4.174  16.312   9.981  0.00  0.00    +0.049 C 
ATOM     11  C   UNL     1       3.546  15.381   8.949  0.00  0.00    +0.015 C 
ATOM     12  C   UNL     1       3.431  16.198  11.321  0.00  0.00    -0.017 C 
ATOM     13  C   UNL     1       3.836  15.461  12.358  0.00  0.00    +0.045 C 
ATOM     14  C   UNL     1       5.145  14.661  12.443  0.00  0.00    +0.187 C 
ATOM     15  O   UNL     1       5.824  14.375  11.508  0.00  0.00    -0.290 OA
ATOM     16  C   UNL     1       5.632  14.381  13.890  0.00  0.00    +0.213 C 
ATOM     17  C   UNL     1       5.874  15.754  14.552  0.00  0.00    +0.154 C 
ATOM     18  C   UNL     1       7.090  16.516  14.008  0.00  0.00    +0.061 C 
ATOM     19  C   UNL     1       6.737  18.013  13.956  0.00  0.00    -0.024 C 
ATOM     20  C   UNL     1       6.303  18.577  12.825  0.00  0.00    +0.005 C 
ATOM     21  C   UNL     1       5.911  20.061  12.806  0.00  0.00    -0.006 A 
ATOM     22  C   UNL     1       6.456  20.872  13.781  0.00  0.00    +0.032 A 
ENDROOT
BRANCH   1  23
ATOM     23  N   UNL     1       6.748  23.030  14.891  0.00  0.00    -0.344 N 
ATOM     24  H   UNL     1       7.471  22.762  15.291  0.00  0.00    +0.146 HD
BRANCH  23  26
ATOM     25  C   UNL     1       6.409  24.532  16.747  0.00  0.00    +0.024 C 
ATOM     26  C   UNL     1       6.132  24.293  15.258  0.00  0.00    +0.098 C 
ENDBRANCH  23  26
ENDBRANCH   1  23
BRANCH   3  27
ATOM     27  O   UNL     1       3.811  22.544  11.038  0.00  0.00    -0.506 OA
ATOM     28  H   UNL     1       3.176  22.931  11.450  0.00  0.00    +0.292 HD
ENDBRANCH   3  27
BRANCH  16  29
ATOM     29  O   UNL     1       6.765  13.602  13.871  0.00  0.00    -0.381 OA
ATOM     30  H   UNL     1       7.033  13.469  14.667  0.00  0.00    +0.210 HD
ENDBRANCH  16  29
BRANCH  17  31
ATOM     31  O   UNL     1       6.050  15.594  15.930  0.00  0.00    -0.388 OA
ATOM     32  H   UNL     1       5.355  15.865  16.337  0.00  0.00    +0.210 HD
ENDBRANCH  17  31
TORSDOF 5
ENDMDL
MODEL 5
REMARK VINA RESULT:      -6.7      3.292      6.576
REMARK  Name = 6I1S_E26.pdb
REMARK  8 active torsions:
REMARK  status: ('A' for Active; 'I' for Inactive)
REMARK    1  A    between atoms: _1  and  _2
REMARK    2  A    between atoms: _2  and  _3
REMARK    3  A    between atoms: _3  and  _4
REMARK    4  A    between atoms: _10  and  _28
REMARK    5  A    between atoms: _11  and  _27
REMARK    6  A    between atoms: _15  and  _16
REMARK    7  A    between atoms: _17  and  _18
REMARK    8  A    between atoms: _22  and  _24
REMARK                            x       y       z     vdW  Elec       q    Type
REMARK                         _______ _______ _______ _____ _____    ______ ____
ROOT
ATOM      1  C   UNL     1       6.807  20.247  14.689  0.00  0.00    +0.031 A 
ATOM      2  C   UNL     1       6.522  21.409  13.982  0.00  0.00    +0.069 A 
ATOM      3  C   UNL     1       6.031  21.300  12.689  0.00  0.00    +0.133 A 
ATOM      4  C   UNL     1       5.832  20.047  12.091  0.00  0.00    +0.107 A 
ATOM      5  C   UNL     1       5.298  20.036  10.656  0.00  0.00    +0.344 C 
ATOM      6  O   UNL     1       5.005  21.039  10.086  0.00  0.00    -0.245 OA
ATOM      7  O   UNL     1       5.203  18.802  10.001  0.00  0.00    -0.457 OA
ATOM      8  C   UNL     1       4.729  18.808   8.662  0.00  0.00    +0.180 C 
ATOM      9  C   UNL     1       5.832  19.063   7.671  0.00  0.00    +0.052 C 
ATOM     10  C   UNL     1       4.090  17.421   8.488  0.00  0.00    +0.049 C 
ATOM     11  C   UNL     1       3.513  17.252   7.086  0.00  0.00    +0.015 C 
ATOM     12  C   UNL     1       2.985  17.251   9.542  0.00  0.00    -0.017 C 
ATOM     13  C   UNL     1       2.751  16.131  10.229  0.00  0.00    +0.045 C 
ATOM     14  C   UNL     1       3.579  14.839  10.161  0.00  0.00    +0.187 C 
ATOM     15  O   UNL     1       4.357  14.579   9.298  0.00  0.00    -0.290 OA
ATOM     16  C   UNL     1       3.459  13.934  11.417  0.00  0.00    +0.213 C 
ATOM     17  C   UNL     1       3.973  14.763  12.613  0.00  0.00    +0.154 C 
ATOM     18  C   UNL     1       5.488  15.010  12.611  0.00  0.00    +0.061 C 
ATOM     19  C   UNL     1       5.746  16.435  13.130  0.00  0.00    -0.024 C 
ATOM     20  C   UNL     1       5.919  17.453  12.284  0.00  0.00    +0.005 C 
ATOM     21  C   UNL     1       6.128  18.876  12.822  0.00  0.00    -0.006 A 
ATOM     22  C   UNL     1       6.605  19.000  14.112  0.00  0.00    +0.032 A 
ENDROOT
BRANCH   1  23
ATOM     23  N   UNL     1       7.314  20.322  16.042  0.00  0.00    -0.344 N 
ATOM     24  H   UNL     1       8.087  20.685  16.201  0.00  0.00    +0.146 HD
BRANCH  23  26
ATOM     25  C   UNL     1       5.475  20.842  17.511  0.00  0.00    +0.024 C 
ATOM     26  C   UNL     1       6.518  19.784  17.130  0.00  0.00    +0.098 C 
ENDBRANCH  23  26
ENDBRANCH   1  23
BRANCH   3  27
ATOM     27  O   UNL     1       5.741  22.454  11.957  0.00  0.00    -0.506 OA
ATOM     28  H   UNL     1       5.746  23.127  12.476  0.00  0.00    +0.292 HD
ENDBRANCH   3  27
BRANCH  16  29
ATOM     29  O   UNL     1       4.173  12.772  11.240  0.00  0.00    -0.381 OA
ATOM     30  H   UNL     1       3.637  12.115  11.182  0.00  0.00    +0.210 HD
ENDBRANCH  16  29
BRANCH  17  31
ATOM     31  O   UNL     1       3.646  14.123  13.813  0.00  0.00    -0.388 OA
ATOM     32  H   UNL     1       2.814  13.948  13.822  0.00  0.00    +0.210 HD
ENDBRANCH  17  31
TORSDOF 5
ENDMDL
MODEL 6
REMARK VINA RESULT:      -6.2      4.068      8.347
REMARK  Name = 6I1S_E26.pdb
REMARK  8 active torsions:
REMARK  status: ('A' for Active; 'I' for Inactive)
REMARK    1  A    between atoms: _1  and  _2
REMARK    2  A    between atoms: _2  and  _3
REMARK    3  A    between atoms: _3  and  _4
REMARK    4  A    between atoms: _10  and  _28
REMARK    5  A    between atoms: _11  and  _27
REMARK    6  A    between atoms: _15  and  _16
REMARK    7  A    between atoms: _17  and  _18
REMARK    8  A    between atoms: _22  and  _24
REMARK                            x       y       z     vdW  Elec       q    Type
REMARK                         _______ _______ _______ _____ _____    ______ ____
ROOT
ATOM      1  C   UNL     1       6.874  18.542  14.267  0.00  0.00    +0.031 A 
ATOM      2  C   UNL     1       7.141  18.703  15.622  0.00  0.00    +0.069 A 
ATOM      3  C   UNL     1       6.976  17.616  16.468  0.00  0.00    +0.133 A 
ATOM      4  C   UNL     1       6.537  16.377  15.981  0.00  0.00    +0.107 A 
ATOM      5  C   UNL     1       6.376  15.245  17.000  0.00  0.00    +0.344 C 
ATOM      6  O   UNL     1       6.664  15.385  18.147  0.00  0.00    -0.245 OA
ATOM      7  O   UNL     1       5.828  14.035  16.556  0.00  0.00    -0.457 OA
ATOM      8  C   UNL     1       5.661  13.002  17.516  0.00  0.00    +0.180 C 
ATOM      9  C   UNL     1       4.360  13.127  18.262  0.00  0.00    +0.052 C 
ATOM     10  C   UNL     1       5.744  11.710  16.688  0.00  0.00    +0.049 C 
ATOM     11  C   UNL     1       5.589  10.478  17.574  0.00  0.00    +0.015 C 
ATOM     12  C   UNL     1       7.097  11.675  15.962  0.00  0.00    -0.017 C 
ATOM     13  C   UNL     1       7.278  11.267  14.704  0.00  0.00    +0.045 C 
ATOM     14  C   UNL     1       6.175  10.836  13.725  0.00  0.00    +0.187 C 
ATOM     15  O   UNL     1       5.064  10.550  14.042  0.00  0.00    -0.290 OA
ATOM     16  C   UNL     1       6.563  10.958  12.228  0.00  0.00    +0.213 C 
ATOM     17  C   UNL     1       6.869  12.449  11.968  0.00  0.00    +0.154 C 
ATOM     18  C   UNL     1       5.638  13.365  11.996  0.00  0.00    +0.061 C 
ATOM     19  C   UNL     1       6.041  14.695  12.656  0.00  0.00    -0.024 C 
ATOM     20  C   UNL     1       5.815  14.914  13.954  0.00  0.00    +0.005 C 
ATOM     21  C   UNL     1       6.268  16.230  14.603  0.00  0.00    -0.006 A 
ATOM     22  C   UNL     1       6.449  17.317  13.771  0.00  0.00    +0.032 A 
ENDROOT
BRANCH   1  23
ATOM     23  N   UNL     1       7.041  19.651  13.353  0.00  0.00    -0.344 N 
ATOM     24  H   UNL     1       7.459  20.369  13.606  0.00  0.00    +0.146 HD
BRANCH  23  26
ATOM     25  C   UNL     1       7.244  20.569  11.133  0.00  0.00    +0.024 C 
ATOM     26  C   UNL     1       6.503  19.551  12.008  0.00  0.00    +0.098 C 
ENDBRANCH  23  26
ENDBRANCH   1  23
BRANCH   3  27
ATOM     27  O   UNL     1       7.235  17.756  17.834  0.00  0.00    -0.506 OA
ATOM     28  H   UNL     1       7.047  17.030  18.234  0.00  0.00    +0.292 HD
ENDBRANCH   3  27
BRANCH  16  29
ATOM     29  O   UNL     1       5.548  10.486  11.429  0.00  0.00    -0.381 OA
ATOM     30  H   UNL     1       5.067  11.136  11.167  0.00  0.00    +0.210 HD
ENDBRANCH  16  29
BRANCH  17  31
ATOM     31  O   UNL     1       7.485  12.599  10.721  0.00  0.00    -0.388 OA
ATOM     32  H   UNL     1       7.802  13.385  10.656  0.00  0.00    +0.210 HD
ENDBRANCH  17  31
TORSDOF 5
ENDMDL
MODEL 7
REMARK VINA RESULT:      -6.1      4.898      8.820
REMARK  Name = 6I1S_E26.pdb
REMARK  8 active torsions:
REMARK  status: ('A' for Active; 'I' for Inactive)
REMARK    1  A    between atoms: _1  and  _2
REMARK    2  A    between atoms: _2  and  _3
REMARK    3  A    between atoms: _3  and  _4
REMARK    4  A    between atoms: _10  and  _28
REMARK    5  A    between atoms: _11  and  _27
REMARK    6  A    between atoms: _15  and  _16
REMARK    7  A    between atoms: _17  and  _18
REMARK    8  A    between atoms: _22  and  _24
REMARK                            x       y       z     vdW  Elec       q    Type
REMARK                         _______ _______ _______ _____ _____    ______ ____
ROOT
ATOM      1  C   UNL     1       6.969  17.519  18.407  0.00  0.00    +0.031 A 
ATOM      2  C   UNL     1       7.436  16.940  19.581  0.00  0.00    +0.069 A 
ATOM      3  C   UNL     1       7.310  15.568  19.745  0.00  0.00    +0.133 A 
ATOM      4  C   UNL     1       6.714  14.771  18.757  0.00  0.00    +0.107 A 
ATOM      5  C   UNL     1       6.614  13.270  19.041  0.00  0.00    +0.344 C 
ATOM      6  O   UNL     1       7.070  12.783  20.027  0.00  0.00    -0.245 OA
ATOM      7  O   UNL     1       5.919  12.473  18.121  0.00  0.00    -0.457 OA
ATOM      8  C   UNL     1       5.811  11.087  18.409  0.00  0.00    +0.180 C 
ATOM      9  C   UNL     1       4.642  10.783  19.305  0.00  0.00    +0.052 C 
ATOM     10  C   UNL     1       5.678  10.431  17.025  0.00  0.00    +0.049 C 
ATOM     11  C   UNL     1       5.557   8.915  17.143  0.00  0.00    +0.015 C 
ATOM     12  C   UNL     1       6.909  10.801  16.183  0.00  0.00    -0.017 C 
ATOM     13  C   UNL     1       6.879  11.124  14.888  0.00  0.00    +0.045 C 
ATOM     14  C   UNL     1       5.620  11.266  14.020  0.00  0.00    +0.187 C 
ATOM     15  O   UNL     1       4.546  10.844  14.313  0.00  0.00    -0.290 OA
ATOM     16  C   UNL     1       5.801  12.168  12.770  0.00  0.00    +0.213 C 
ATOM     17  C   UNL     1       6.179  13.573  13.286  0.00  0.00    +0.154 C 
ATOM     18  C   UNL     1       5.037  14.321  13.988  0.00  0.00    +0.061 C 
ATOM     19  C   UNL     1       5.629  15.103  15.173  0.00  0.00    -0.024 C 
ATOM     20  C   UNL     1       5.605  14.599  16.410  0.00  0.00    +0.005 C 
ATOM     21  C   UNL     1       6.244  15.374  17.571  0.00  0.00    -0.006 A 
ATOM     22  C   UNL     1       6.387  16.739  17.417  0.00  0.00    +0.032 A 
ENDROOT
BRANCH   1  23
ATOM     23  N   UNL     1       7.089  18.946  18.198  0.00  0.00    -0.344 N 
ATOM     24  H   UNL     1       7.553  19.432  18.749  0.00  0.00    +0.146 HD
BRANCH  23  26
ATOM     25  C   UNL     1       5.526  20.677  17.590  0.00  0.00    +0.024 C 
ATOM     26  C   UNL     1       6.426  19.555  17.059  0.00  0.00    +0.098 C 
ENDBRANCH  23  26
ENDBRANCH   1  23
BRANCH   3  27
ATOM     27  O   UNL     1       7.769  14.965  20.919  0.00  0.00    -0.506 OA
ATOM     28  H   UNL     1       8.618  15.001  20.943  0.00  0.00    +0.292 HD
ENDBRANCH   3  27
BRANCH  16  29
ATOM     29  O   UNL     1       4.650  12.180  12.017  0.00  0.00    -0.381 OA
ATOM     30  H   UNL     1       4.846  12.079  11.197  0.00  0.00    +0.210 HD
ENDBRANCH  16  29
BRANCH  17  31
ATOM     31  O   UNL     1       6.623  14.368  12.225  0.00  0.00    -0.388 OA
ATOM     32  H   UNL     1       5.963  14.570  11.728  0.00  0.00    +0.210 HD
ENDBRANCH  17  31
TORSDOF 5
ENDMDL
MODEL 8
REMARK VINA RESULT:      -6.0      3.605      6.668
REMARK  Name = 6I1S_E26.pdb
REMARK  8 active torsions:
REMARK  status: ('A' for Active; 'I' for Inactive)
REMARK    1  A    between atoms: _1  and  _2
REMARK    2  A    between atoms: _2  and  _3
REMARK    3  A    between atoms: _3  and  _4
REMARK    4  A    between atoms: _10  and  _28
REMARK    5  A    between atoms: _11  and  _27
REMARK    6  A    between atoms: _15  and  _16
REMARK    7  A    between atoms: _17  and  _18
REMARK    8  A    between atoms: _22  and  _24
REMARK                            x       y       z     vdW  Elec       q    Type
REMARK                         _______ _______ _______ _____ _____    ______ ____
ROOT
ATOM      1  C   UNL     1       5.600  14.447  13.531  0.00  0.00    +0.031 A 
ATOM      2  C   UNL     1       5.220  13.441  12.650  0.00  0.00    +0.069 A 
ATOM      3  C   UNL     1       4.734  13.796  11.400  0.00  0.00    +0.133 A 
ATOM      4  C   UNL     1       4.614  15.142  11.024  0.00  0.00    +0.107 A 
ATOM      5  C   UNL     1       4.056  15.426   9.626  0.00  0.00    +0.344 C 
ATOM      6  O   UNL     1       3.789  14.552   8.864  0.00  0.00    -0.245 OA
ATOM      7  O   UNL     1       3.819  16.762   9.275  0.00  0.00    -0.457 OA
ATOM      8  C   UNL     1       3.278  17.011   7.986  0.00  0.00    +0.180 C 
ATOM      9  C   UNL     1       1.777  16.913   7.971  0.00  0.00    +0.052 C 
ATOM     10  C   UNL     1       3.779  18.422   7.640  0.00  0.00    +0.049 C 
ATOM     11  C   UNL     1       3.291  18.859   6.262  0.00  0.00    +0.015 C 
ATOM     12  C   UNL     1       5.315  18.426   7.685  0.00  0.00    -0.017 C 
ATOM     13  C   UNL     1       6.061  19.408   8.196  0.00  0.00    +0.045 C 
ATOM     14  C   UNL     1       5.538  20.670   8.900  0.00  0.00    +0.187 C 
ATOM     15  O   UNL     1       4.416  21.062   8.837  0.00  0.00    -0.290 OA
ATOM     16  C   UNL     1       6.556  21.333   9.865  0.00  0.00    +0.213 C 
ATOM     17  C   UNL     1       6.885  20.288  10.952  0.00  0.00    +0.154 C 
ATOM     18  C   UNL     1       5.737  20.007  11.932  0.00  0.00    +0.061 C 
ATOM     19  C   UNL     1       5.744  18.505  12.265  0.00  0.00    -0.024 C 
ATOM     20  C   UNL     1       4.947  17.653  11.615  0.00  0.00    +0.005 C 
ATOM     21  C   UNL     1       5.003  16.152  11.929  0.00  0.00    -0.006 A 
ATOM     22  C   UNL     1       5.495  15.782  13.165  0.00  0.00    +0.032 A 
ENDROOT
BRANCH   1  23
ATOM     23  N   UNL     1       6.117  14.114  14.840  0.00  0.00    -0.344 N 
ATOM     24  H   UNL     1       6.973  14.037  14.968  0.00  0.00    +0.146 HD
BRANCH  23  26
ATOM     25  C   UNL     1       5.740  14.659  17.158  0.00  0.00    +0.024 C 
ATOM     26  C   UNL     1       5.189  13.910  15.939  0.00  0.00    +0.098 C 
ENDBRANCH  23  26
ENDBRANCH   1  23
BRANCH   3  27
ATOM     27  O   UNL     1       4.342  12.801  10.500  0.00  0.00    -0.506 OA
ATOM     28  H   UNL     1       4.716  12.067  10.708  0.00  0.00    +0.292 HD
ENDBRANCH   3  27
BRANCH  16  29
ATOM     29  O   UNL     1       6.031  22.489  10.393  0.00  0.00    -0.381 OA
ATOM     30  H   UNL     1       6.395  23.163  10.024  0.00  0.00    +0.210 HD
ENDBRANCH  16  29
BRANCH  17  31
ATOM     31  O   UNL     1       7.991  20.707  11.698  0.00  0.00    -0.388 OA
ATOM     32  H   UNL     1       8.100  21.544  11.595  0.00  0.00    +0.210 HD
ENDBRANCH  17  31
TORSDOF 5
ENDMDL
MODEL 9
REMARK VINA RESULT:      -5.9      3.577      6.976
REMARK  Name = 6I1S_E26.pdb
REMARK  8 active torsions:
REMARK  status: ('A' for Active; 'I' for Inactive)
REMARK    1  A    between atoms: _1  and  _2
REMARK    2  A    between atoms: _2  and  _3
REMARK    3  A    between atoms: _3  and  _4
REMARK    4  A    between atoms: _10  and  _28
REMARK    5  A    between atoms: _11  and  _27
REMARK    6  A    between atoms: _15  and  _16
REMARK    7  A    between atoms: _17  and  _18
REMARK    8  A    between atoms: _22  and  _24
REMARK                            x       y       z     vdW  Elec       q    Type
REMARK                         _______ _______ _______ _____ _____    ______ ____
ROOT
ATOM      1  C   UNL     1       5.880  22.797  13.369  0.00  0.00    +0.031 A 
ATOM      2  C   UNL     1       6.507  21.742  14.022  0.00  0.00    +0.069 A 
ATOM      3  C   UNL     1       6.379  20.463  13.500  0.00  0.00    +0.133 A 
ATOM      4  C   UNL     1       5.624  20.224  12.342  0.00  0.00    +0.107 A 
ATOM      5  C   UNL     1       5.537  18.775  11.855  0.00  0.00    +0.344 C 
ATOM      6  O   UNL     1       6.127  17.892  12.393  0.00  0.00    -0.245 OA
ATOM      7  O   UNL     1       4.695  18.498  10.770  0.00  0.00    -0.457 OA
ATOM      8  C   UNL     1       4.603  17.146  10.344  0.00  0.00    +0.180 C 
ATOM      9  C   UNL     1       3.576  16.373  11.126  0.00  0.00    +0.052 C 
ATOM     10  C   UNL     1       4.250  17.252   8.851  0.00  0.00    +0.049 C 
ATOM     11  C   UNL     1       4.116  15.870   8.218  0.00  0.00    +0.015 C 
ATOM     12  C   UNL     1       5.347  18.058   8.140  0.00  0.00    -0.017 C 
ATOM     13  C   UNL     1       5.128  18.975   7.195  0.00  0.00    +0.045 C 
ATOM     14  C   UNL     1       3.755  19.455   6.699  0.00  0.00    +0.187 C 
ATOM     15  O   UNL     1       2.730  18.882   6.892  0.00  0.00    -0.290 OA
ATOM     16  C   UNL     1       3.765  20.864   6.050  0.00  0.00    +0.213 C 
ATOM     17  C   UNL     1       4.245  21.851   7.136  0.00  0.00    +0.154 C 
ATOM     18  C   UNL     1       3.238  22.089   8.269  0.00  0.00    +0.061 C 
ATOM     19  C   UNL     1       4.017  22.217   9.589  0.00  0.00    -0.024 C 
ATOM     20  C   UNL     1       4.171  21.169  10.401  0.00  0.00    +0.005 C 
ATOM     21  C   UNL     1       4.993  21.306  11.691  0.00  0.00    -0.006 A 
ATOM     22  C   UNL     1       5.139  22.574  12.216  0.00  0.00    +0.032 A 
ENDROOT
BRANCH   1  23
ATOM     23  N   UNL     1       5.996  24.145  13.881  0.00  0.00    -0.344 N 
ATOM     24  H   UNL     1       5.603  24.368  14.623  0.00  0.00    +0.146 HD
BRANCH  23  26
ATOM     25  C   UNL     1       8.173  25.175  13.773  0.00  0.00    +0.024 C 
ATOM     26  C   UNL     1       6.777  25.121  13.141  0.00  0.00    +0.098 C 
ENDBRANCH  23  26
ENDBRANCH   1  23
BRANCH   3  27
ATOM     27  O   UNL     1       6.997  19.387  14.141  0.00  0.00    -0.506 OA
ATOM     28  H   UNL     1       7.413  18.917  13.569  0.00  0.00    +0.292 HD
ENDBRANCH   3  27
BRANCH  16  29
ATOM     29  O   UNL     1       2.514  21.180   5.573  0.00  0.00    -0.381 OA
ATOM     30  H   UNL     1       2.293  21.955   5.845  0.00  0.00    +0.210 HD
ENDBRANCH  16  29
BRANCH  17  31
ATOM     31  O   UNL     1       4.540  23.090   6.558  0.00  0.00    -0.388 OA
ATOM     32  H   UNL     1       4.142  23.154   5.810  0.00  0.00    +0.210 HD
ENDBRANCH  17  31
TORSDOF 5
ENDMDL
