MODEL 1
REMARK VINA RESULT:      -9.8      0.000      0.000
REMARK  Name = 6GIN_IR2.pdb
REMARK  3 active torsions:
REMARK  status: ('A' for Active; 'I' for Inactive)
REMARK    1  A    between atoms: _6  and  _7
REMARK    2  A    between atoms: _10  and  _13
REMARK    3  A    between atoms: _19  and  _24
REMARK                            x       y       z     vdW  Elec       q    Type
REMARK                         _______ _______ _______ _____ _____    ______ ____
ROOT
ATOM      1  N   UNL     1       6.294  23.350  13.050  0.00  0.00    -0.257 N 
ATOM      2  C   UNL     1       5.999  23.186  14.395  0.00  0.00    +0.267 A 
ATOM      3  O   UNL     1       5.473  22.146  14.768  0.00  0.00    -0.267 OA
ATOM      4  C   UNL     1       6.351  24.320  15.322  0.00  0.00    +0.074 A 
ATOM      5  C   UNL     1       6.069  24.235  16.699  0.00  0.00    +0.006 A 
ATOM      6  C   UNL     1       6.380  25.293  17.565  0.00  0.00    +0.000 A 
ATOM      7  C   UNL     1       7.007  26.450  17.065  0.00  0.00    +0.002 A 
ATOM      8  C   UNL     1       7.298  26.557  15.714  0.00  0.00    +0.019 A 
ATOM      9  C   UNL     1       6.955  25.457  14.865  0.00  0.00    +0.088 A 
ATOM     10  N   UNL     1       7.253  25.599  13.486  0.00  0.00    -0.225 NA
ATOM     11  C   UNL     1       6.927  24.527  12.610  0.00  0.00    +0.185 A 
ENDROOT
BRANCH   6  12
ATOM     12  C   UNL     1       6.117  25.198  18.941  0.00  0.00    +0.003 A 
ATOM     13  C   UNL     1       6.744  24.193  19.791  0.00  0.00    +0.018 A 
ATOM     14  C   UNL     1       7.675  23.210  19.312  0.00  0.00    +0.001 A 
ATOM     15  C   UNL     1       8.263  22.222  20.128  0.00  0.00    +0.000 A 
ATOM     16  C   UNL     1       7.919  22.223  21.481  0.00  0.00    +0.002 A 
ATOM     17  C   UNL     1       7.045  23.193  21.978  0.00  0.00    +0.019 A 
ATOM     18  C   UNL     1       6.444  24.180  21.123  0.00  0.00    +0.081 A 
ATOM     19  N   UNL     1       5.561  25.127  21.642  0.00  0.00    -0.244 NA
ATOM     20  C   UNL     1       4.977  26.086  20.895  0.00  0.00    +0.099 A 
ATOM     21  C   UNL     1       5.264  26.128  19.515  0.00  0.00    +0.021 A 
ENDBRANCH   6  12
BRANCH   1  25
ATOM     22  C   UNL     1       5.680  20.305  10.236  0.00  0.00    +0.048 A 
ATOM     23  C   UNL     1       4.643  21.186  10.534  0.00  0.00    +0.016 A 
ATOM     24  C   UNL     1       4.847  22.203  11.457  0.00  0.00    +0.019 A 
ATOM     25  C   UNL     1       6.098  22.376  12.047  0.00  0.00    +0.068 A 
ATOM     26  C   UNL     1       7.117  21.473  11.788  0.00  0.00    +0.019 A 
ATOM     27  C   UNL     1       6.911  20.444  10.880  0.00  0.00    +0.016 A 
BRANCH  22  29
ATOM     28  C   UNL     1       5.511  19.535   7.928  0.00  0.00    +0.123 C 
ATOM     29  N   UNL     1       5.502  19.219   9.307  0.00  0.00    -0.303 N 
ATOM     30  C   UNL     1       4.619  18.192   9.704  0.00  0.00    +0.123 C 
ATOM     31  C   UNL     1       3.404  18.037   8.812  0.00  0.00    +0.164 C 
ATOM     32  O   UNL     1       3.095  19.191   8.040  0.00  0.00    -0.350 OA
ATOM     33  C   UNL     1       4.161  19.628   7.231  0.00  0.00    +0.164 C 
ENDBRANCH  22  29
ENDBRANCH   1  25
TORSDOF 3
ENDMDL
MODEL 2
REMARK VINA RESULT:      -9.7      4.956     10.491
REMARK  Name = 6GIN_IR2.pdb
REMARK  3 active torsions:
REMARK  status: ('A' for Active; 'I' for Inactive)
REMARK    1  A    between atoms: _6  and  _7
REMARK    2  A    between atoms: _10  and  _13
REMARK    3  A    between atoms: _19  and  _24
REMARK                            x       y       z     vdW  Elec       q    Type
REMARK                         _______ _______ _______ _____ _____    ______ ____
ROOT
ATOM      1  N   UNL     1       9.836  22.764  18.626  0.00  0.00    -0.257 N 
ATOM      2  C   UNL     1       9.319  22.943  17.352  0.00  0.00    +0.267 A 
ATOM      3  O   UNL     1       9.956  23.594  16.536  0.00  0.00    -0.267 OA
ATOM      4  C   UNL     1       7.983  22.314  17.055  0.00  0.00    +0.074 A 
ATOM      5  C   UNL     1       7.385  22.465  15.789  0.00  0.00    +0.006 A 
ATOM      6  C   UNL     1       6.134  21.894  15.511  0.00  0.00    +0.000 A 
ATOM      7  C   UNL     1       5.471  21.138  16.495  0.00  0.00    +0.002 A 
ATOM      8  C   UNL     1       6.040  20.973  17.749  0.00  0.00    +0.019 A 
ATOM      9  C   UNL     1       7.314  21.579  17.992  0.00  0.00    +0.088 A 
ATOM     10  N   UNL     1       7.866  21.403  19.286  0.00  0.00    -0.225 NA
ATOM     11  C   UNL     1       9.130  21.992  19.567  0.00  0.00    +0.185 A 
ENDROOT
BRANCH   6  12
ATOM     12  C   UNL     1       5.549  22.028  14.242  0.00  0.00    +0.003 A 
ATOM     13  C   UNL     1       5.616  20.977  13.233  0.00  0.00    +0.018 A 
ATOM     14  C   UNL     1       6.284  19.722  13.431  0.00  0.00    +0.001 A 
ATOM     15  C   UNL     1       6.372  18.716  12.448  0.00  0.00    +0.000 A 
ATOM     16  C   UNL     1       5.756  18.965  11.221  0.00  0.00    +0.002 A 
ATOM     17  C   UNL     1       5.067  20.164  11.018  0.00  0.00    +0.019 A 
ATOM     18  C   UNL     1       5.006  21.183  12.029  0.00  0.00    +0.081 A 
ATOM     19  N   UNL     1       4.326  22.378  11.794  0.00  0.00    -0.244 NA
ATOM     20  C   UNL     1       4.221  23.365  12.707  0.00  0.00    +0.099 A 
ATOM     21  C   UNL     1       4.840  23.186  13.961  0.00  0.00    +0.021 A 
ENDBRANCH   6  12
BRANCH   1  25
ATOM     22  C   UNL     1      13.671  24.035  19.742  0.00  0.00    +0.048 A 
ATOM     23  C   UNL     1      12.775  24.950  19.194  0.00  0.00    +0.016 A 
ATOM     24  C   UNL     1      11.499  24.535  18.834  0.00  0.00    +0.019 A 
ATOM     25  C   UNL     1      11.098  23.220  19.066  0.00  0.00    +0.068 A 
ATOM     26  C   UNL     1      12.003  22.297  19.567  0.00  0.00    +0.019 A 
ATOM     27  C   UNL     1      13.283  22.705  19.910  0.00  0.00    +0.016 A 
BRANCH  22  29
ATOM     28  C   UNL     1      16.021  24.245  19.125  0.00  0.00    +0.123 C 
ATOM     29  N   UNL     1      15.012  24.418  20.101  0.00  0.00    -0.303 N 
ATOM     30  C   UNL     1      15.394  24.186  21.440  0.00  0.00    +0.123 C 
ATOM     31  C   UNL     1      16.537  23.203  21.597  0.00  0.00    +0.164 C 
ATOM     32  O   UNL     1      16.725  22.340  20.483  0.00  0.00    -0.350 OA
ATOM     33  C   UNL     1      16.919  23.024  19.268  0.00  0.00    +0.164 C 
ENDBRANCH  22  29
ENDBRANCH   1  25
TORSDOF 3
ENDMDL
MODEL 3
REMARK VINA RESULT:      -9.7      4.220     10.660
REMARK  Name = 6GIN_IR2.pdb
REMARK  3 active torsions:
REMARK  status: ('A' for Active; 'I' for Inactive)
REMARK    1  A    between atoms: _6  and  _7
REMARK    2  A    between atoms: _10  and  _13
REMARK    3  A    between atoms: _19  and  _24
REMARK                            x       y       z     vdW  Elec       q    Type
REMARK                         _______ _______ _______ _____ _____    ______ ____
ROOT
ATOM      1  N   UNL     1       8.377  22.252  21.143  0.00  0.00    -0.257 N 
ATOM      2  C   UNL     1       8.348  22.476  19.775  0.00  0.00    +0.267 A 
ATOM      3  O   UNL     1       9.108  21.848  19.052  0.00  0.00    -0.267 OA
ATOM      4  C   UNL     1       7.364  23.496  19.264  0.00  0.00    +0.074 A 
ATOM      5  C   UNL     1       7.285  23.790  17.889  0.00  0.00    +0.006 A 
ATOM      6  C   UNL     1       6.382  24.750  17.409  0.00  0.00    +0.000 A 
ATOM      7  C   UNL     1       5.521  25.415  18.301  0.00  0.00    +0.002 A 
ATOM      8  C   UNL     1       5.577  25.141  19.659  0.00  0.00    +0.019 A 
ATOM      9  C   UNL     1       6.520  24.161  20.107  0.00  0.00    +0.088 A 
ATOM     10  N   UNL     1       6.563  23.910  21.502  0.00  0.00    -0.225 NA
ATOM     11  C   UNL     1       7.487  22.943  21.986  0.00  0.00    +0.185 A 
ENDROOT
BRANCH   6  12
ATOM     12  C   UNL     1       6.291  25.026  16.035  0.00  0.00    +0.003 A 
ATOM     13  C   UNL     1       5.962  24.003  15.050  0.00  0.00    +0.018 A 
ATOM     14  C   UNL     1       5.711  22.628  15.380  0.00  0.00    +0.001 A 
ATOM     15  C   UNL     1       5.420  21.632  14.426  0.00  0.00    +0.000 A 
ATOM     16  C   UNL     1       5.361  22.026  13.088  0.00  0.00    +0.002 A 
ATOM     17  C   UNL     1       5.564  23.366  12.746  0.00  0.00    +0.019 A 
ATOM     18  C   UNL     1       5.878  24.360  13.735  0.00  0.00    +0.081 A 
ATOM     19  N   UNL     1       6.093  25.688  13.364  0.00  0.00    -0.244 NA
ATOM     20  C   UNL     1       6.377  26.669  14.246  0.00  0.00    +0.099 A 
ATOM     21  C   UNL     1       6.472  26.334  15.612  0.00  0.00    +0.021 A 
ENDBRANCH   6  12
BRANCH   1  25
ATOM     22  C   UNL     1      10.702  19.495  23.279  0.00  0.00    +0.048 A 
ATOM     23  C   UNL     1       9.449  19.115  22.801  0.00  0.00    +0.016 A 
ATOM     24  C   UNL     1       8.682  20.022  22.082  0.00  0.00    +0.019 A 
ATOM     25  C   UNL     1       9.181  21.292  21.796  0.00  0.00    +0.068 A 
ATOM     26  C   UNL     1      10.405  21.688  22.311  0.00  0.00    +0.019 A 
ATOM     27  C   UNL     1      11.167  20.790  23.044  0.00  0.00    +0.016 A 
BRANCH  22  29
ATOM     28  C   UNL     1      10.960  17.336  24.384  0.00  0.00    +0.123 C 
ATOM     29  N   UNL     1      11.516  18.594  24.053  0.00  0.00    -0.303 N 
ATOM     30  C   UNL     1      12.350  19.182  25.028  0.00  0.00    +0.123 C 
ATOM     31  C   UNL     1      12.030  18.768  26.450  0.00  0.00    +0.164 C 
ATOM     32  O   UNL     1      10.713  18.263  26.630  0.00  0.00    -0.350 OA
ATOM     33  C   UNL     1      10.408  17.173  25.793  0.00  0.00    +0.164 C 
ENDBRANCH  22  29
ENDBRANCH   1  25
TORSDOF 3
ENDMDL
MODEL 4
REMARK VINA RESULT:      -9.6     10.092     14.975
REMARK  Name = 6GIN_IR2.pdb
REMARK  3 active torsions:
REMARK  status: ('A' for Active; 'I' for Inactive)
REMARK    1  A    between atoms: _6  and  _7
REMARK    2  A    between atoms: _10  and  _13
REMARK    3  A    between atoms: _19  and  _24
REMARK                            x       y       z     vdW  Elec       q    Type
REMARK                         _______ _______ _______ _____ _____    ______ ____
ROOT
ATOM      1  N   UNL     1      10.863  18.232  27.005  0.00  0.00    -0.257 N 
ATOM      2  C   UNL     1      11.479  18.722  25.864  0.00  0.00    +0.267 A 
ATOM      3  O   UNL     1      11.599  17.991  24.890  0.00  0.00    -0.267 OA
ATOM      4  C   UNL     1      11.971  20.145  25.903  0.00  0.00    +0.074 A 
ATOM      5  C   UNL     1      12.621  20.710  24.789  0.00  0.00    +0.006 A 
ATOM      6  C   UNL     1      13.094  22.030  24.823  0.00  0.00    +0.000 A 
ATOM      7  C   UNL     1      12.898  22.818  25.973  0.00  0.00    +0.002 A 
ATOM      8  C   UNL     1      12.259  22.286  27.082  0.00  0.00    +0.019 A 
ATOM      9  C   UNL     1      11.800  20.932  27.006  0.00  0.00    +0.088 A 
ATOM     10  N   UNL     1      11.159  20.411  28.159  0.00  0.00    -0.225 NA
ATOM     11  C   UNL     1      10.690  19.069  28.123  0.00  0.00    +0.185 A 
ENDROOT
BRANCH   6  12
ATOM     12  C   UNL     1      13.724  22.598  23.704  0.00  0.00    +0.003 A 
ATOM     13  C   UNL     1      12.985  23.027  22.522  0.00  0.00    +0.018 A 
ATOM     14  C   UNL     1      11.560  22.906  22.384  0.00  0.00    +0.001 A 
ATOM     15  C   UNL     1      10.848  23.296  21.233  0.00  0.00    +0.000 A 
ATOM     16  C   UNL     1      11.583  23.843  20.180  0.00  0.00    +0.002 A 
ATOM     17  C   UNL     1      12.966  24.006  20.306  0.00  0.00    +0.019 A 
ATOM     18  C   UNL     1      13.673  23.583  21.484  0.00  0.00    +0.081 A 
ATOM     19  N   UNL     1      15.056  23.742  21.577  0.00  0.00    -0.244 NA
ATOM     20  C   UNL     1      15.774  23.380  22.659  0.00  0.00    +0.099 A 
ATOM     21  C   UNL     1      15.094  22.800  23.750  0.00  0.00    +0.021 A 
ENDBRANCH   6  12
BRANCH   1  25
ATOM     22  C   UNL     1       9.133  14.462  27.610  0.00  0.00    +0.048 A 
ATOM     23  C   UNL     1       8.336  15.526  27.192  0.00  0.00    +0.016 A 
ATOM     24  C   UNL     1       8.909  16.774  26.979  0.00  0.00    +0.019 A 
ATOM     25  C   UNL     1      10.283  16.951  27.134  0.00  0.00    +0.068 A 
ATOM     26  C   UNL     1      11.069  15.907  27.596  0.00  0.00    +0.019 A 
ATOM     27  C   UNL     1      10.497  14.665  27.827  0.00  0.00    +0.016 A 
BRANCH  22  29
ATOM     28  C   UNL     1       7.239  13.108  28.337  0.00  0.00    +0.123 C 
ATOM     29  N   UNL     1       8.574  13.161  27.870  0.00  0.00    -0.303 N 
ATOM     30  C   UNL     1       9.456  12.192  28.395  0.00  0.00    +0.123 C 
ATOM     31  C   UNL     1       9.082  11.697  29.778  0.00  0.00    +0.164 C 
ATOM     32  O   UNL     1       8.232  12.576  30.504  0.00  0.00    -0.350 OA
ATOM     33  C   UNL     1       7.037  12.888  29.830  0.00  0.00    +0.164 C 
ENDBRANCH  22  29
ENDBRANCH   1  25
TORSDOF 3
ENDMDL
MODEL 5
REMARK VINA RESULT:      -9.4      6.666     10.264
REMARK  Name = 6GIN_IR2.pdb
REMARK  3 active torsions:
REMARK  status: ('A' for Active; 'I' for Inactive)
REMARK    1  A    between atoms: _6  and  _7
REMARK    2  A    between atoms: _10  and  _13
REMARK    3  A    between atoms: _19  and  _24
REMARK                            x       y       z     vdW  Elec       q    Type
REMARK                         _______ _______ _______ _____ _____    ______ ____
ROOT
ATOM      1  N   UNL     1      13.514  24.261  20.306  0.00  0.00    -0.257 N 
ATOM      2  C   UNL     1      12.700  23.703  21.279  0.00  0.00    +0.267 A 
ATOM      3  O   UNL     1      11.500  23.602  21.067  0.00  0.00    -0.267 OA
ATOM      4  C   UNL     1      13.360  23.254  22.556  0.00  0.00    +0.074 A 
ATOM      5  C   UNL     1      12.598  22.692  23.598  0.00  0.00    +0.006 A 
ATOM      6  C   UNL     1      13.204  22.285  24.796  0.00  0.00    +0.000 A 
ATOM      7  C   UNL     1      14.596  22.412  24.958  0.00  0.00    +0.002 A 
ATOM      8  C   UNL     1      15.369  22.959  23.946  0.00  0.00    +0.019 A 
ATOM      9  C   UNL     1      14.708  23.369  22.744  0.00  0.00    +0.088 A 
ATOM     10  N   UNL     1      15.522  23.936  21.731  0.00  0.00    -0.225 NA
ATOM     11  C   UNL     1      14.901  24.356  20.522  0.00  0.00    +0.185 A 
ENDROOT
BRANCH   6  12
ATOM     12  C   UNL     1      12.446  21.706  25.826  0.00  0.00    +0.003 A 
ATOM     13  C   UNL     1      12.153  20.278  25.876  0.00  0.00    +0.018 A 
ATOM     14  C   UNL     1      12.599  19.336  24.887  0.00  0.00    +0.001 A 
ATOM     15  C   UNL     1      12.295  17.961  24.921  0.00  0.00    +0.000 A 
ATOM     16  C   UNL     1      11.527  17.501  25.992  0.00  0.00    +0.002 A 
ATOM     17  C   UNL     1      11.114  18.392  26.987  0.00  0.00    +0.019 A 
ATOM     18  C   UNL     1      11.421  19.795  26.921  0.00  0.00    +0.081 A 
ATOM     19  N   UNL     1      10.981  20.665  27.919  0.00  0.00    -0.244 NA
ATOM     20  C   UNL     1      11.248  21.987  27.922  0.00  0.00    +0.099 A 
ATOM     21  C   UNL     1      12.002  22.520  26.856  0.00  0.00    +0.021 A 
ENDBRANCH   6  12
BRANCH   1  25
ATOM     22  C   UNL     1      12.036  25.463  16.572  0.00  0.00    +0.048 A 
ATOM     23  C   UNL     1      12.413  26.426  17.506  0.00  0.00    +0.016 A 
ATOM     24  C   UNL     1      12.915  26.031  18.739  0.00  0.00    +0.019 A 
ATOM     25  C   UNL     1      13.088  24.678  19.025  0.00  0.00    +0.068 A 
ATOM     26  C   UNL     1      12.669  23.718  18.118  0.00  0.00    +0.019 A 
ATOM     27  C   UNL     1      12.151  24.109  16.892  0.00  0.00    +0.016 A 
BRANCH  22  29
ATOM     28  C   UNL     1      11.142  27.189  15.099  0.00  0.00    +0.123 C 
ATOM     29  N   UNL     1      11.484  25.830  15.294  0.00  0.00    -0.303 N 
ATOM     30  C   UNL     1      10.639  24.881  14.679  0.00  0.00    +0.123 C 
ATOM     31  C   UNL     1       9.213  25.355  14.481  0.00  0.00    +0.164 C 
ATOM     32  O   UNL     1       8.831  26.430  15.330  0.00  0.00    -0.350 OA
ATOM     33  C   UNL     1       9.670  27.556  15.224  0.00  0.00    +0.164 C 
ENDBRANCH  22  29
ENDBRANCH   1  25
TORSDOF 3
ENDMDL
MODEL 6
REMARK VINA RESULT:      -9.4     10.145     14.779
REMARK  Name = 6GIN_IR2.pdb
REMARK  3 active torsions:
REMARK  status: ('A' for Active; 'I' for Inactive)
REMARK    1  A    between atoms: _6  and  _7
REMARK    2  A    between atoms: _10  and  _13
REMARK    3  A    between atoms: _19  and  _24
REMARK                            x       y       z     vdW  Elec       q    Type
REMARK                         _______ _______ _______ _____ _____    ______ ____
ROOT
ATOM      1  N   UNL     1      10.652  17.841  26.862  0.00  0.00    -0.257 N 
ATOM      2  C   UNL     1      10.865  18.450  25.634  0.00  0.00    +0.267 A 
ATOM      3  O   UNL     1      10.682  17.808  24.610  0.00  0.00    -0.267 OA
ATOM      4  C   UNL     1      11.319  19.886  25.647  0.00  0.00    +0.074 A 
ATOM      5  C   UNL     1      11.571  20.569  24.442  0.00  0.00    +0.006 A 
ATOM      6  C   UNL     1      12.008  21.902  24.447  0.00  0.00    +0.000 A 
ATOM      7  C   UNL     1      12.175  22.584  25.667  0.00  0.00    +0.002 A 
ATOM      8  C   UNL     1      11.930  21.934  26.867  0.00  0.00    +0.019 A 
ATOM      9  C   UNL     1      11.494  20.572  26.816  0.00  0.00    +0.088 A 
ATOM     10  N   UNL     1      11.262  19.930  28.059  0.00  0.00    -0.225 NA
ATOM     11  C   UNL     1      10.829  18.575  28.049  0.00  0.00    +0.185 A 
ENDROOT
BRANCH   6  12
ATOM     12  C   UNL     1      12.240  22.588  23.243  0.00  0.00    +0.003 A 
ATOM     13  C   UNL     1      13.575  22.989  22.814  0.00  0.00    +0.018 A 
ATOM     14  C   UNL     1      14.768  22.734  23.573  0.00  0.00    +0.001 A 
ATOM     15  C   UNL     1      16.055  23.144  23.172  0.00  0.00    +0.000 A 
ATOM     16  C   UNL     1      16.160  23.824  21.957  0.00  0.00    +0.002 A 
ATOM     17  C   UNL     1      15.019  24.050  21.183  0.00  0.00    +0.019 A 
ATOM     18  C   UNL     1      13.713  23.638  21.622  0.00  0.00    +0.081 A 
ATOM     19  N   UNL     1      12.588  23.892  20.837  0.00  0.00    -0.244 NA
ATOM     20  C   UNL     1      11.340  23.519  21.186  0.00  0.00    +0.099 A 
ATOM     21  C   UNL     1      11.160  22.846  22.413  0.00  0.00    +0.021 A 
ENDBRANCH   6  12
BRANCH   1  25
ATOM     22  C   UNL     1       9.237  13.972  27.637  0.00  0.00    +0.048 A 
ATOM     23  C   UNL     1       8.330  15.004  27.404  0.00  0.00    +0.016 A 
ATOM     24  C   UNL     1       8.795  16.284  27.135  0.00  0.00    +0.019 A 
ATOM     25  C   UNL     1      10.165  16.529  27.048  0.00  0.00    +0.068 A 
ATOM     26  C   UNL     1      11.069  15.516  27.326  0.00  0.00    +0.019 A 
ATOM     27  C   UNL     1      10.607  14.240  27.613  0.00  0.00    +0.016 A 
BRANCH  22  29
ATOM     28  C   UNL     1       7.609  12.184  27.326  0.00  0.00    +0.123 C 
ATOM     29  N   UNL     1       8.796  12.638  27.948  0.00  0.00    -0.303 N 
ATOM     30  C   UNL     1       9.013  12.197  29.272  0.00  0.00    +0.123 C 
ATOM     31  C   UNL     1       7.743  11.887  30.039  0.00  0.00    +0.164 C 
ATOM     32  O   UNL     1       6.577  12.510  29.516  0.00  0.00    -0.350 OA
ATOM     33  C   UNL     1       6.337  12.210  28.162  0.00  0.00    +0.164 C 
ENDBRANCH  22  29
ENDBRANCH   1  25
TORSDOF 3
ENDMDL
MODEL 7
REMARK VINA RESULT:      -9.3      7.134     12.609
REMARK  Name = 6GIN_IR2.pdb
REMARK  3 active torsions:
REMARK  status: ('A' for Active; 'I' for Inactive)
REMARK    1  A    between atoms: _6  and  _7
REMARK    2  A    between atoms: _10  and  _13
REMARK    3  A    between atoms: _19  and  _24
REMARK                            x       y       z     vdW  Elec       q    Type
REMARK                         _______ _______ _______ _____ _____    ______ ____
ROOT
ATOM      1  N   UNL     1       9.623  18.020  24.080  0.00  0.00    -0.257 N 
ATOM      2  C   UNL     1       8.760  18.558  23.138  0.00  0.00    +0.267 A 
ATOM      3  O   UNL     1       7.668  18.036  22.961  0.00  0.00    -0.267 OA
ATOM      4  C   UNL     1       9.235  19.770  22.380  0.00  0.00    +0.074 A 
ATOM      5  C   UNL     1       8.422  20.365  21.395  0.00  0.00    +0.006 A 
ATOM      6  C   UNL     1       8.865  21.484  20.676  0.00  0.00    +0.000 A 
ATOM      7  C   UNL     1      10.126  22.044  20.951  0.00  0.00    +0.002 A 
ATOM      8  C   UNL     1      10.944  21.479  21.917  0.00  0.00    +0.019 A 
ATOM      9  C   UNL     1      10.456  20.332  22.622  0.00  0.00    +0.088 A 
ATOM     10  N   UNL     1      11.319  19.769  23.596  0.00  0.00    -0.225 NA
ATOM     11  C   UNL     1      10.869  18.628  24.316  0.00  0.00    +0.185 A 
ENDROOT
BRANCH   6  12
ATOM     12  C   UNL     1       8.045  22.088  19.709  0.00  0.00    +0.003 A 
ATOM     13  C   UNL     1       7.138  23.185  20.025  0.00  0.00    +0.018 A 
ATOM     14  C   UNL     1       6.989  23.745  21.340  0.00  0.00    +0.001 A 
ATOM     15  C   UNL     1       6.094  24.788  21.652  0.00  0.00    +0.000 A 
ATOM     16  C   UNL     1       5.325  25.305  20.609  0.00  0.00    +0.002 A 
ATOM     17  C   UNL     1       5.480  24.803  19.314  0.00  0.00    +0.019 A 
ATOM     18  C   UNL     1       6.386  23.726  19.022  0.00  0.00    +0.081 A 
ATOM     19  N   UNL     1       6.508  23.232  17.723  0.00  0.00    -0.244 NA
ATOM     20  C   UNL     1       7.350  22.234  17.384  0.00  0.00    +0.099 A 
ATOM     21  C   UNL     1       8.141  21.652  18.397  0.00  0.00    +0.021 A 
ENDBRANCH   6  12
BRANCH   1  25
ATOM     22  C   UNL     1       8.951  14.815  26.696  0.00  0.00    +0.048 A 
ATOM     23  C   UNL     1       8.402  16.063  26.982  0.00  0.00    +0.016 A 
ATOM     24  C   UNL     1       8.613  17.124  26.111  0.00  0.00    +0.019 A 
ATOM     25  C   UNL     1       9.328  16.931  24.929  0.00  0.00    +0.068 A 
ATOM     26  C   UNL     1       9.914  15.703  24.667  0.00  0.00    +0.019 A 
ATOM     27  C   UNL     1       9.721  14.646  25.544  0.00  0.00    +0.016 A 
BRANCH  22  29
ATOM     28  C   UNL     1       9.143  12.418  27.102  0.00  0.00    +0.123 C 
ATOM     29  N   UNL     1       8.780  13.696  27.587  0.00  0.00    -0.303 N 
ATOM     30  C   UNL     1       7.661  13.742  28.446  0.00  0.00    +0.123 C 
ATOM     31  C   UNL     1       6.658  12.629  28.219  0.00  0.00    +0.164 C 
ATOM     32  O   UNL     1       6.738  12.023  26.935  0.00  0.00    -0.350 OA
ATOM     33  C   UNL     1       8.014  11.511  26.632  0.00  0.00    +0.164 C 
ENDBRANCH  22  29
ENDBRANCH   1  25
TORSDOF 3
ENDMDL
MODEL 8
REMARK VINA RESULT:      -9.3      8.623     11.004
REMARK  Name = 6GIN_IR2.pdb
REMARK  3 active torsions:
REMARK  status: ('A' for Active; 'I' for Inactive)
REMARK    1  A    between atoms: _6  and  _7
REMARK    2  A    between atoms: _10  and  _13
REMARK    3  A    between atoms: _19  and  _24
REMARK                            x       y       z     vdW  Elec       q    Type
REMARK                         _______ _______ _______ _____ _____    ______ ____
ROOT
ATOM      1  N   UNL     1      14.402  23.219  20.476  0.00  0.00    -0.257 N 
ATOM      2  C   UNL     1      13.495  22.660  21.363  0.00  0.00    +0.267 A 
ATOM      3  O   UNL     1      12.431  22.232  20.938  0.00  0.00    -0.267 OA
ATOM      4  C   UNL     1      13.888  22.618  22.817  0.00  0.00    +0.074 A 
ATOM      5  C   UNL     1      13.013  22.079  23.781  0.00  0.00    +0.006 A 
ATOM      6  C   UNL     1      13.367  22.051  25.138  0.00  0.00    +0.000 A 
ATOM      7  C   UNL     1      14.620  22.541  25.549  0.00  0.00    +0.002 A 
ATOM      8  C   UNL     1      15.500  23.073  24.619  0.00  0.00    +0.019 A 
ATOM      9  C   UNL     1      15.095  23.090  23.246  0.00  0.00    +0.088 A 
ATOM     10  N   UNL     1      16.010  23.651  22.319  0.00  0.00    -0.225 NA
ATOM     11  C   UNL     1      15.643  23.687  20.946  0.00  0.00    +0.185 A 
ENDROOT
BRANCH   6  12
ATOM     12  C   UNL     1      12.502  21.495  26.094  0.00  0.00    +0.003 A 
ATOM     13  C   UNL     1      12.235  20.064  26.172  0.00  0.00    +0.018 A 
ATOM     14  C   UNL     1      12.816  19.094  25.285  0.00  0.00    +0.001 A 
ATOM     15  C   UNL     1      12.539  17.713  25.343  0.00  0.00    +0.000 A 
ATOM     16  C   UNL     1      11.657  17.278  26.334  0.00  0.00    +0.002 A 
ATOM     17  C   UNL     1      11.110  18.198  27.232  0.00  0.00    +0.019 A 
ATOM     18  C   UNL     1      11.393  19.604  27.143  0.00  0.00    +0.081 A 
ATOM     19  N   UNL     1      10.819  20.503  28.042  0.00  0.00    -0.244 NA
ATOM     20  C   UNL     1      11.056  21.831  28.019  0.00  0.00    +0.099 A 
ATOM     21  C   UNL     1      11.921  22.339  27.028  0.00  0.00    +0.021 A 
ENDBRANCH   6  12
BRANCH   1  25
ATOM     22  C   UNL     1      14.107  23.540  16.308  0.00  0.00    +0.048 A 
ATOM     23  C   UNL     1      14.620  22.375  16.873  0.00  0.00    +0.016 A 
ATOM     24  C   UNL     1      14.707  22.260  18.255  0.00  0.00    +0.019 A 
ATOM     25  C   UNL     1      14.239  23.286  19.075  0.00  0.00    +0.068 A 
ATOM     26  C   UNL     1      13.774  24.465  18.515  0.00  0.00    +0.019 A 
ATOM     27  C   UNL     1      13.702  24.589  17.135  0.00  0.00    +0.016 A 
BRANCH  22  29
ATOM     28  C   UNL     1      15.244  23.825  14.169  0.00  0.00    +0.123 C 
ATOM     29  N   UNL     1      14.027  23.711  14.880  0.00  0.00    -0.303 N 
ATOM     30  C   UNL     1      12.950  24.488  14.400  0.00  0.00    +0.123 C 
ATOM     31  C   UNL     1      13.371  25.752  13.678  0.00  0.00    +0.164 C 
ATOM     32  O   UNL     1      14.685  26.196  13.992  0.00  0.00    -0.350 OA
ATOM     33  C   UNL     1      15.678  25.226  13.760  0.00  0.00    +0.164 C 
ENDBRANCH  22  29
ENDBRANCH   1  25
TORSDOF 3
ENDMDL
MODEL 9
REMARK VINA RESULT:      -9.3      1.404      2.504
REMARK  Name = 6GIN_IR2.pdb
REMARK  3 active torsions:
REMARK  status: ('A' for Active; 'I' for Inactive)
REMARK    1  A    between atoms: _6  and  _7
REMARK    2  A    between atoms: _10  and  _13
REMARK    3  A    between atoms: _19  and  _24
REMARK                            x       y       z     vdW  Elec       q    Type
REMARK                         _______ _______ _______ _____ _____    ______ ____
ROOT
ATOM      1  N   UNL     1       6.064  22.417  13.029  0.00  0.00    -0.257 N 
ATOM      2  C   UNL     1       5.942  22.214  14.395  0.00  0.00    +0.267 A 
ATOM      3  O   UNL     1       5.221  21.313  14.802  0.00  0.00    -0.267 OA
ATOM      4  C   UNL     1       6.718  23.133  15.301  0.00  0.00    +0.074 A 
ATOM      5  C   UNL     1       6.634  23.000  16.700  0.00  0.00    +0.006 A 
ATOM      6  C   UNL     1       7.343  23.863  17.550  0.00  0.00    +0.000 A 
ATOM      7  C   UNL     1       8.171  24.861  17.006  0.00  0.00    +0.002 A 
ATOM      8  C   UNL     1       8.273  25.011  15.632  0.00  0.00    +0.019 A 
ATOM      9  C   UNL     1       7.527  24.115  14.803  0.00  0.00    +0.088 A 
ATOM     10  N   UNL     1       7.641  24.299  13.401  0.00  0.00    -0.225 NA
ATOM     11  C   UNL     1       6.913  23.428  12.544  0.00  0.00    +0.185 A 
ENDROOT
BRANCH   6  12
ATOM     12  C   UNL     1       7.273  23.715  18.945  0.00  0.00    +0.003 A 
ATOM     13  C   UNL     1       6.406  24.540  19.778  0.00  0.00    +0.018 A 
ATOM     14  C   UNL     1       5.554  25.576  19.264  0.00  0.00    +0.001 A 
ATOM     15  C   UNL     1       4.735  26.391  20.070  0.00  0.00    +0.000 A 
ATOM     16  C   UNL     1       4.754  26.154  21.446  0.00  0.00    +0.002 A 
ATOM     17  C   UNL     1       5.546  25.127  21.966  0.00  0.00    +0.019 A 
ATOM     18  C   UNL     1       6.387  24.320  21.125  0.00  0.00    +0.081 A 
ATOM     19  N   UNL     1       7.181  23.311  21.672  0.00  0.00    -0.244 NA
ATOM     20  C   UNL     1       7.979  22.512  20.935  0.00  0.00    +0.099 A 
ATOM     21  C   UNL     1       8.023  22.713  19.540  0.00  0.00    +0.021 A 
ENDBRANCH   6  12
BRANCH   1  25
ATOM     22  C   UNL     1       4.177  19.941  10.222  0.00  0.00    +0.048 A 
ATOM     23  C   UNL     1       3.717  21.242  10.412  0.00  0.00    +0.016 A 
ATOM     24  C   UNL     1       4.347  22.069  11.332  0.00  0.00    +0.019 A 
ATOM     25  C   UNL     1       5.468  21.618  12.028  0.00  0.00    +0.068 A 
ATOM     26  C   UNL     1       5.898  20.310  11.877  0.00  0.00    +0.019 A 
ATOM     27  C   UNL     1       5.260  19.476  10.971  0.00  0.00    +0.016 A 
BRANCH  22  29
ATOM     28  C   UNL     1       2.519  18.201   9.811  0.00  0.00    +0.123 C 
ATOM     29  N   UNL     1       3.534  19.043   9.299  0.00  0.00    -0.303 N 
ATOM     30  C   UNL     1       4.350  18.490   8.289  0.00  0.00    +0.123 C 
ATOM     31  C   UNL     1       4.481  16.981   8.352  0.00  0.00    +0.164 C 
ATOM     32  O   UNL     1       4.183  16.421   9.625  0.00  0.00    -0.350 OA
ATOM     33  C   UNL     1       2.901  16.755  10.100  0.00  0.00    +0.164 C 
ENDBRANCH  22  29
ENDBRANCH   1  25
TORSDOF 3
ENDMDL
