MODEL 1
REMARK VINA RESULT:      -6.7      0.000      0.000
REMARK  Name = 6T6D_MM8.pdb
REMARK  7 active torsions:
REMARK  status: ('A' for Active; 'I' for Inactive)
REMARK    1  A    between atoms: _1  and  _2
REMARK    2  A    between atoms: _2  and  _3
REMARK    3  A    between atoms: _5  and  _6
REMARK    4  A    between atoms: _10  and  _11
REMARK    5  A    between atoms: _14  and  _15
REMARK    6  A    between atoms: _23  and  _24
REMARK    7  A    between atoms: _27  and  _28
REMARK                            x       y       z     vdW  Elec       q    Type
REMARK                         _______ _______ _______ _____ _____    ______ ____
ROOT
ATOM      1  C   UNL     1       9.509  13.997  25.581  0.00  0.00    +0.004 A 
ATOM      2  C   UNL     1       9.020  14.119  26.900  0.00  0.00    -0.032 A 
ATOM      3  C   UNL     1       8.476  15.447  27.393  0.00  0.00    +0.045 C 
ATOM      4  C   UNL     1       9.058  12.970  27.748  0.00  0.00    +0.004 A 
ATOM      5  C   UNL     1       9.551  11.788  27.251  0.00  0.00    +0.119 A 
ATOM      6  N   UNL     1      10.004  11.700  25.999  0.00  0.00    -0.262 NA
ATOM      7  C   UNL     1       9.986  12.762  25.187  0.00  0.00    +0.119 A 
ENDROOT
BRANCH   1  12
ATOM      8  C   UNL     1      10.506  17.169  23.830  0.00  0.00    +0.133 A 
ATOM      9  C   UNL     1       9.571  17.196  22.787  0.00  0.00    +0.078 A 
ATOM     10  C   UNL     1       8.610  16.167  22.677  0.00  0.00    +0.017 A 
ATOM     11  C   UNL     1       8.600  15.120  23.609  0.00  0.00    +0.009 A 
ATOM     12  C   UNL     1       9.552  15.069  24.642  0.00  0.00    -0.013 A 
ATOM     13  C   UNL     1      10.497  16.117  24.761  0.00  0.00    +0.055 A 
BRANCH   9  14
ATOM     14  C   UNL     1       9.579  18.351  21.782  0.00  0.00    +0.245 C 
ATOM     15  O   UNL     1       8.576  18.887  21.487  0.00  0.00    -0.270 OA
ATOM     16  N   UNL     1      10.828  18.793  21.207  0.00  0.00    -0.325 N 
ATOM     17  H   UNL     1      11.564  18.405  21.423  0.00  0.00    +0.145 HD
ATOM     18  H   UNL     1      10.834  19.446  20.648  0.00  0.00    +0.145 HD
ENDBRANCH   9  14
BRANCH   8  20
ATOM     19  C   UNL     1      12.424  18.100  24.991  0.00  0.00    +0.277 C 
ATOM     20  O   UNL     1      11.477  18.237  23.930  0.00  0.00    -0.494 OA
ENDBRANCH   8  20
ENDBRANCH   1  12
BRANCH   4  21
ATOM     21  C   UNL     1       8.603  12.982  29.104  0.00  0.00    -0.016 A 
ATOM     22  C   UNL     1       7.232  12.977  29.416  0.00  0.00    +0.010 A 
ATOM     23  C   UNL     1       6.817  12.981  30.769  0.00  0.00    +0.024 A 
ATOM     24  C   UNL     1       7.768  12.979  31.795  0.00  0.00    +0.030 A 
ATOM     25  C   UNL     1       9.138  12.968  31.483  0.00  0.00    +0.024 A 
ATOM     26  C   UNL     1       9.545  12.954  30.144  0.00  0.00    +0.010 A 
BRANCH  24  27
ATOM     27  N   UNL     1       7.351  12.981  33.223  0.00  0.00    -0.327 N 
ATOM     28  C   UNL     1       6.244  12.099  33.697  0.00  0.00    +0.120 C 
ATOM     29  C   UNL     1       6.283  11.889  35.216  0.00  0.00    +0.100 C 
ATOM     30  N   UNL     1       6.282  13.119  35.938  0.00  0.00    -0.313 NA
ATOM     31  H   UNL     1       5.511  13.506  35.848  0.00  0.00    +0.122 HD
ATOM     32  C   UNL     1       7.307  14.005  35.520  0.00  0.00    +0.100 C 
ATOM     33  C   UNL     1       7.283  14.257  34.008  0.00  0.00    +0.120 C 
ENDBRANCH  24  27
ENDBRANCH   4  21
TORSDOF 5
ENDMDL
MODEL 2
REMARK VINA RESULT:      -6.7      4.987      9.798
REMARK  Name = 6T6D_MM8.pdb
REMARK  7 active torsions:
REMARK  status: ('A' for Active; 'I' for Inactive)
REMARK    1  A    between atoms: _1  and  _2
REMARK    2  A    between atoms: _2  and  _3
REMARK    3  A    between atoms: _5  and  _6
REMARK    4  A    between atoms: _10  and  _11
REMARK    5  A    between atoms: _14  and  _15
REMARK    6  A    between atoms: _23  and  _24
REMARK    7  A    between atoms: _27  and  _28
REMARK                            x       y       z     vdW  Elec       q    Type
REMARK                         _______ _______ _______ _____ _____    ______ ____
ROOT
ATOM      1  C   UNL     1      12.231  14.808  29.095  0.00  0.00    +0.004 A 
ATOM      2  C   UNL     1      11.853  15.404  27.872  0.00  0.00    -0.032 A 
ATOM      3  C   UNL     1      12.720  16.479  27.245  0.00  0.00    +0.045 C 
ATOM      4  C   UNL     1      10.639  14.972  27.254  0.00  0.00    +0.004 A 
ATOM      5  C   UNL     1       9.894  13.989  27.858  0.00  0.00    +0.119 A 
ATOM      6  N   UNL     1      10.277  13.441  29.013  0.00  0.00    -0.262 NA
ATOM      7  C   UNL     1      11.405  13.831  29.615  0.00  0.00    +0.119 A 
ENDROOT
BRANCH   1  12
ATOM      8  C   UNL     1      15.500  14.565  30.933  0.00  0.00    +0.133 A 
ATOM      9  C   UNL     1      15.683  15.900  31.318  0.00  0.00    +0.078 A 
ATOM     10  C   UNL     1      14.717  16.870  30.973  0.00  0.00    +0.017 A 
ATOM     11  C   UNL     1      13.581  16.494  30.243  0.00  0.00    +0.009 A 
ATOM     12  C   UNL     1      13.403  15.162  29.828  0.00  0.00    -0.013 A 
ATOM     13  C   UNL     1      14.363  14.190  30.198  0.00  0.00    +0.055 A 
BRANCH   9  14
ATOM     14  C   UNL     1      16.918  16.301  32.128  0.00  0.00    +0.245 C 
ATOM     15  O   UNL     1      16.812  17.006  33.063  0.00  0.00    -0.270 OA
ATOM     16  N   UNL     1      18.218  15.797  31.752  0.00  0.00    -0.325 N 
ATOM     17  H   UNL     1      18.300  15.279  31.071  0.00  0.00    +0.145 HD
ATOM     18  H   UNL     1      18.912  16.015  32.210  0.00  0.00    +0.145 HD
ENDBRANCH   9  14
BRANCH   8  20
ATOM     19  C   UNL     1      16.010  12.477  32.059  0.00  0.00    +0.277 C 
ATOM     20  O   UNL     1      16.498  13.586  31.303  0.00  0.00    -0.494 OA
ENDBRANCH   8  20
ENDBRANCH   1  12
BRANCH   4  21
ATOM     21  C   UNL     1      10.151  15.516  26.025  0.00  0.00    -0.016 A 
ATOM     22  C   UNL     1       9.415  16.713  25.995  0.00  0.00    +0.010 A 
ATOM     23  C   UNL     1       8.954  17.227  24.759  0.00  0.00    +0.024 A 
ATOM     24  C   UNL     1       9.240  16.552  23.567  0.00  0.00    +0.030 A 
ATOM     25  C   UNL     1       9.990  15.364  23.596  0.00  0.00    +0.024 A 
ATOM     26  C   UNL     1      10.453  14.864  24.819  0.00  0.00    +0.010 A 
BRANCH  24  27
ATOM     27  N   UNL     1       8.767  17.079  22.259  0.00  0.00    -0.327 N 
ATOM     28  C   UNL     1       8.303  16.152  21.185  0.00  0.00    +0.120 C 
ATOM     29  C   UNL     1       7.436  16.867  20.142  0.00  0.00    +0.100 C 
ATOM     30  N   UNL     1       8.087  18.001  19.572  0.00  0.00    -0.313 NA
ATOM     31  H   UNL     1       8.749  17.735  19.078  0.00  0.00    +0.122 HD
ATOM     32  C   UNL     1       8.563  18.912  20.549  0.00  0.00    +0.100 C 
ATOM     33  C   UNL     1       9.454  18.236  21.596  0.00  0.00    +0.120 C 
ENDBRANCH  24  27
ENDBRANCH   4  21
TORSDOF 5
ENDMDL
MODEL 3
REMARK VINA RESULT:      -6.6      1.345      2.342
REMARK  Name = 6T6D_MM8.pdb
REMARK  7 active torsions:
REMARK  status: ('A' for Active; 'I' for Inactive)
REMARK    1  A    between atoms: _1  and  _2
REMARK    2  A    between atoms: _2  and  _3
REMARK    3  A    between atoms: _5  and  _6
REMARK    4  A    between atoms: _10  and  _11
REMARK    5  A    between atoms: _14  and  _15
REMARK    6  A    between atoms: _23  and  _24
REMARK    7  A    between atoms: _27  and  _28
REMARK                            x       y       z     vdW  Elec       q    Type
REMARK                         _______ _______ _______ _____ _____    ______ ____
ROOT
ATOM      1  C   UNL     1       9.167  12.980  25.948  0.00  0.00    +0.004 A 
ATOM      2  C   UNL     1       8.773  13.309  27.264  0.00  0.00    -0.032 A 
ATOM      3  C   UNL     1       8.411  14.739  27.617  0.00  0.00    +0.045 C 
ATOM      4  C   UNL     1       8.734  12.268  28.240  0.00  0.00    +0.004 A 
ATOM      5  C   UNL     1       9.062  10.987  27.867  0.00  0.00    +0.119 A 
ATOM      6  N   UNL     1       9.428  10.704  26.616  0.00  0.00    -0.262 NA
ATOM      7  C   UNL     1       9.480  11.661  25.684  0.00  0.00    +0.119 A 
ENDROOT
BRANCH   1  12
ATOM      8  C   UNL     1       8.339  15.076  22.941  0.00  0.00    +0.133 A 
ATOM      9  C   UNL     1       9.543  15.771  22.768  0.00  0.00    +0.078 A 
ATOM     10  C   UNL     1      10.624  15.534  23.644  0.00  0.00    +0.017 A 
ATOM     11  C   UNL     1      10.486  14.607  24.686  0.00  0.00    +0.009 A 
ATOM     12  C   UNL     1       9.273  13.925  24.885  0.00  0.00    -0.013 A 
ATOM     13  C   UNL     1       8.201  14.150  23.988  0.00  0.00    +0.055 A 
BRANCH   9  14
ATOM     14  C   UNL     1       9.691  16.771  21.618  0.00  0.00    +0.245 C 
ATOM     15  O   UNL     1      10.215  17.808  21.796  0.00  0.00    -0.270 OA
ATOM     16  N   UNL     1       9.196  16.432  20.304  0.00  0.00    -0.325 N 
ATOM     17  H   UNL     1       8.814  15.674  20.169  0.00  0.00    +0.145 HD
ATOM     18  H   UNL     1       9.284  16.990  19.656  0.00  0.00    +0.145 HD
ENDBRANCH   9  14
BRANCH   8  20
ATOM     19  C   UNL     1       6.178  16.113  22.560  0.00  0.00    +0.277 C 
ATOM     20  O   UNL     1       7.246  15.328  22.027  0.00  0.00    -0.494 OA
ENDBRANCH   8  20
ENDBRANCH   1  12
BRANCH   4  21
ATOM     21  C   UNL     1       8.364  12.489  29.604  0.00  0.00    -0.016 A 
ATOM     22  C   UNL     1       9.331  12.757  30.590  0.00  0.00    +0.010 A 
ATOM     23  C   UNL     1       8.930  12.979  31.929  0.00  0.00    +0.024 A 
ATOM     24  C   UNL     1       7.574  12.944  32.271  0.00  0.00    +0.030 A 
ATOM     25  C   UNL     1       6.607  12.692  31.283  0.00  0.00    +0.024 A 
ATOM     26  C   UNL     1       7.006  12.483  29.957  0.00  0.00    +0.010 A 
BRANCH  24  27
ATOM     27  N   UNL     1       7.133  13.178  33.672  0.00  0.00    -0.327 N 
ATOM     28  C   UNL     1       5.868  12.575  34.186  0.00  0.00    +0.120 C 
ATOM     29  C   UNL     1       5.833  12.527  35.719  0.00  0.00    +0.100 C 
ATOM     30  N   UNL     1       6.051  13.806  36.311  0.00  0.00    -0.313 NA
ATOM     31  H   UNL     1       5.369  14.319  36.150  0.00  0.00    +0.122 HD
ATOM     32  C   UNL     1       7.234  14.434  35.849  0.00  0.00    +0.100 C 
ATOM     33  C   UNL     1       7.293  14.521  34.319  0.00  0.00    +0.120 C 
ENDBRANCH  24  27
ENDBRANCH   4  21
TORSDOF 5
ENDMDL
MODEL 4
REMARK VINA RESULT:      -6.6      4.155      6.722
REMARK  Name = 6T6D_MM8.pdb
REMARK  7 active torsions:
REMARK  status: ('A' for Active; 'I' for Inactive)
REMARK    1  A    between atoms: _1  and  _2
REMARK    2  A    between atoms: _2  and  _3
REMARK    3  A    between atoms: _5  and  _6
REMARK    4  A    between atoms: _10  and  _11
REMARK    5  A    between atoms: _14  and  _15
REMARK    6  A    between atoms: _23  and  _24
REMARK    7  A    between atoms: _27  and  _28
REMARK                            x       y       z     vdW  Elec       q    Type
REMARK                         _______ _______ _______ _____ _____    ______ ____
ROOT
ATOM      1  C   UNL     1       7.487  16.163  21.629  0.00  0.00    +0.004 A 
ATOM      2  C   UNL     1       8.064  15.465  22.713  0.00  0.00    -0.032 A 
ATOM      3  C   UNL     1       8.076  13.948  22.724  0.00  0.00    +0.045 C 
ATOM      4  C   UNL     1       8.621  16.222  23.788  0.00  0.00    +0.004 A 
ATOM      5  C   UNL     1       8.593  17.594  23.725  0.00  0.00    +0.119 A 
ATOM      6  N   UNL     1       8.044  18.228  22.688  0.00  0.00    -0.262 NA
ATOM      7  C   UNL     1       7.510  17.543  21.671  0.00  0.00    +0.119 A 
ENDROOT
BRANCH   1  12
ATOM      8  C   UNL     1       5.082  14.201  19.511  0.00  0.00    +0.133 A 
ATOM      9  C   UNL     1       5.724  14.257  18.267  0.00  0.00    +0.078 A 
ATOM     10  C   UNL     1       6.955  14.937  18.141  0.00  0.00    +0.017 A 
ATOM     11  C   UNL     1       7.526  15.557  19.260  0.00  0.00    +0.009 A 
ATOM     12  C   UNL     1       6.875  15.531  20.506  0.00  0.00    -0.013 A 
ATOM     13  C   UNL     1       5.654  14.827  20.631  0.00  0.00    +0.055 A 
BRANCH   9  14
ATOM     14  C   UNL     1       5.101  13.563  17.053  0.00  0.00    +0.245 C 
ATOM     15  O   UNL     1       5.083  12.390  16.984  0.00  0.00    -0.270 OA
ATOM     16  N   UNL     1       4.519  14.354  15.994  0.00  0.00    -0.325 N 
ATOM     17  H   UNL     1       4.528  15.212  16.041  0.00  0.00    +0.145 HD
ATOM     18  H   UNL     1       4.163  13.966  15.315  0.00  0.00    +0.145 HD
ENDBRANCH   9  14
BRANCH   8  20
ATOM     19  C   UNL     1       3.183  13.587  20.893  0.00  0.00    +0.277 C 
ATOM     20  O   UNL     1       3.825  13.492  19.620  0.00  0.00    -0.494 OA
ENDBRANCH   8  20
ENDBRANCH   1  12
BRANCH   4  21
ATOM     21  C   UNL     1       9.216  15.621  24.941  0.00  0.00    -0.016 A 
ATOM     22  C   UNL     1      10.573  15.251  24.956  0.00  0.00    +0.010 A 
ATOM     23  C   UNL     1      11.132  14.666  26.117  0.00  0.00    +0.024 A 
ATOM     24  C   UNL     1      10.340  14.467  27.254  0.00  0.00    +0.030 A 
ATOM     25  C   UNL     1       8.989  14.852  27.245  0.00  0.00    +0.024 A 
ATOM     26  C   UNL     1       8.442  15.439  26.097  0.00  0.00    +0.010 A 
BRANCH  24  27
ATOM     27  N   UNL     1      10.911  13.857  28.485  0.00  0.00    -0.327 N 
ATOM     28  C   UNL     1      10.021  13.293  29.542  0.00  0.00    +0.120 C 
ATOM     29  C   UNL     1      10.764  12.316  30.461  0.00  0.00    +0.100 C 
ATOM     30  N   UNL     1      11.928  12.895  31.048  0.00  0.00    -0.313 NA
ATOM     31  H   UNL     1      11.691  13.505  31.618  0.00  0.00    +0.122 HD
ATOM     32  C   UNL     1      12.806  13.459  30.089  0.00  0.00    +0.100 C 
ATOM     33  C   UNL     1      12.102  14.461  29.167  0.00  0.00    +0.120 C 
ENDBRANCH  24  27
ENDBRANCH   4  21
TORSDOF 5
ENDMDL
MODEL 5
REMARK VINA RESULT:      -6.6      4.555      9.445
REMARK  Name = 6T6D_MM8.pdb
REMARK  7 active torsions:
REMARK  status: ('A' for Active; 'I' for Inactive)
REMARK    1  A    between atoms: _1  and  _2
REMARK    2  A    between atoms: _2  and  _3
REMARK    3  A    between atoms: _5  and  _6
REMARK    4  A    between atoms: _10  and  _11
REMARK    5  A    between atoms: _14  and  _15
REMARK    6  A    between atoms: _23  and  _24
REMARK    7  A    between atoms: _27  and  _28
REMARK                            x       y       z     vdW  Elec       q    Type
REMARK                         _______ _______ _______ _____ _____    ______ ____
ROOT
ATOM      1  C   UNL     1      10.935  14.602  28.349  0.00  0.00    +0.004 A 
ATOM      2  C   UNL     1      10.571  14.993  27.042  0.00  0.00    -0.032 A 
ATOM      3  C   UNL     1      11.494  15.875  26.223  0.00  0.00    +0.045 C 
ATOM      4  C   UNL     1       9.317  14.544  26.524  0.00  0.00    +0.004 A 
ATOM      5  C   UNL     1       8.521  13.740  27.302  0.00  0.00    +0.119 A 
ATOM      6  N   UNL     1       8.892  13.383  28.534  0.00  0.00    -0.262 NA
ATOM      7  C   UNL     1      10.056  13.795  29.045  0.00  0.00    +0.119 A 
ENDROOT
BRANCH   1  12
ATOM      8  C   UNL     1      14.243  14.465  30.127  0.00  0.00    +0.133 A 
ATOM      9  C   UNL     1      14.498  15.831  30.308  0.00  0.00    +0.078 A 
ATOM     10  C   UNL     1      13.568  16.788  29.848  0.00  0.00    +0.017 A 
ATOM     11  C   UNL     1      12.394  16.367  29.207  0.00  0.00    +0.009 A 
ATOM     12  C   UNL     1      12.143  15.000  28.995  0.00  0.00    -0.013 A 
ATOM     13  C   UNL     1      13.068  14.045  29.481  0.00  0.00    +0.055 A 
BRANCH   9  14
ATOM     14  C   UNL     1      15.775  16.282  31.023  0.00  0.00    +0.245 C 
ATOM     15  O   UNL     1      15.730  17.118  31.848  0.00  0.00    -0.270 OA
ATOM     16  N   UNL     1      17.039  15.666  30.692  0.00  0.00    -0.325 N 
ATOM     17  H   UNL     1      17.076  15.052  30.092  0.00  0.00    +0.145 HD
ATOM     18  H   UNL     1      17.755  15.914  31.098  0.00  0.00    +0.145 HD
ENDBRANCH   9  14
BRANCH   8  20
ATOM     19  C   UNL     1      14.701  12.176  30.791  0.00  0.00    +0.277 C 
ATOM     20  O   UNL     1      15.206  13.501  30.613  0.00  0.00    -0.494 OA
ENDBRANCH   8  20
ENDBRANCH   1  12
BRANCH   4  21
ATOM     21  C   UNL     1       8.841  14.890  25.221  0.00  0.00    -0.016 A 
ATOM     22  C   UNL     1       8.268  16.147  24.961  0.00  0.00    +0.010 A 
ATOM     23  C   UNL     1       7.813  16.460  23.658  0.00  0.00    +0.024 A 
ATOM     24  C   UNL     1       7.945  15.525  22.625  0.00  0.00    +0.030 A 
ATOM     25  C   UNL     1       8.533  14.275  22.881  0.00  0.00    +0.024 A 
ATOM     26  C   UNL     1       8.990  13.972  24.170  0.00  0.00    +0.010 A 
BRANCH  24  27
ATOM     27  N   UNL     1       7.476  15.837  21.248  0.00  0.00    -0.327 N 
ATOM     28  C   UNL     1       6.960  14.759  20.354  0.00  0.00    +0.120 C 
ATOM     29  C   UNL     1       6.108  15.319  19.208  0.00  0.00    +0.100 C 
ATOM     30  N   UNL     1       6.799  16.308  18.446  0.00  0.00    -0.313 NA
ATOM     31  H   UNL     1       7.442  15.932  18.002  0.00  0.00    +0.122 HD
ATOM     32  C   UNL     1       7.324  17.353  19.247  0.00  0.00    +0.100 C 
ATOM     33  C   UNL     1       8.202  16.831  20.391  0.00  0.00    +0.120 C 
ENDBRANCH  24  27
ENDBRANCH   4  21
TORSDOF 5
ENDMDL
MODEL 6
REMARK VINA RESULT:      -6.5      5.000      7.174
REMARK  Name = 6T6D_MM8.pdb
REMARK  7 active torsions:
REMARK  status: ('A' for Active; 'I' for Inactive)
REMARK    1  A    between atoms: _1  and  _2
REMARK    2  A    between atoms: _2  and  _3
REMARK    3  A    between atoms: _5  and  _6
REMARK    4  A    between atoms: _10  and  _11
REMARK    5  A    between atoms: _14  and  _15
REMARK    6  A    between atoms: _23  and  _24
REMARK    7  A    between atoms: _27  and  _28
REMARK                            x       y       z     vdW  Elec       q    Type
REMARK                         _______ _______ _______ _____ _____    ______ ____
ROOT
ATOM      1  C   UNL     1       6.723  15.609  22.334  0.00  0.00    +0.004 A 
ATOM      2  C   UNL     1       7.746  15.297  23.255  0.00  0.00    -0.032 A 
ATOM      3  C   UNL     1       8.495  13.981  23.148  0.00  0.00    +0.045 C 
ATOM      4  C   UNL     1       8.046  16.243  24.283  0.00  0.00    +0.004 A 
ATOM      5  C   UNL     1       7.346  17.423  24.331  0.00  0.00    +0.119 A 
ATOM      6  N   UNL     1       6.385  17.694  23.445  0.00  0.00    -0.262 NA
ATOM      7  C   UNL     1       6.080  16.824  22.478  0.00  0.00    +0.119 A 
ENDROOT
BRANCH   1  12
ATOM      8  C   UNL     1       4.898  12.945  20.413  0.00  0.00    +0.133 A 
ATOM      9  C   UNL     1       5.548  13.024  19.174  0.00  0.00    +0.078 A 
ATOM     10  C   UNL     1       6.593  13.955  18.987  0.00  0.00    +0.017 A 
ATOM     11  C   UNL     1       6.972  14.798  20.041  0.00  0.00    +0.009 A 
ATOM     12  C   UNL     1       6.307  14.746  21.278  0.00  0.00    -0.013 A 
ATOM     13  C   UNL     1       5.276  13.793  21.466  0.00  0.00    +0.055 A 
BRANCH   9  14
ATOM     14  C   UNL     1       5.138  12.089  18.034  0.00  0.00    +0.245 C 
ATOM     15  O   UNL     1       4.817  12.528  16.992  0.00  0.00    -0.270 OA
ATOM     16  N   UNL     1       5.162  10.659  18.234  0.00  0.00    -0.325 N 
ATOM     17  H   UNL     1       5.398  10.333  18.994  0.00  0.00    +0.145 HD
ATOM     18  H   UNL     1       4.938  10.133  17.593  0.00  0.00    +0.145 HD
ENDBRANCH   9  14
BRANCH   8  20
ATOM     19  C   UNL     1       2.590  12.519  21.033  0.00  0.00    +0.277 C 
ATOM     20  O   UNL     1       3.835  11.979  20.586  0.00  0.00    -0.494 OA
ENDBRANCH   8  20
ENDBRANCH   1  12
BRANCH   4  21
ATOM     21  C   UNL     1       9.051  16.025  25.277  0.00  0.00    -0.016 A 
ATOM     22  C   UNL     1      10.376  16.455  25.085  0.00  0.00    +0.010 A 
ATOM     23  C   UNL     1      11.344  16.230  26.093  0.00  0.00    +0.024 A 
ATOM     24  C   UNL     1      10.981  15.593  27.285  0.00  0.00    +0.030 A 
ATOM     25  C   UNL     1       9.653  15.178  27.484  0.00  0.00    +0.024 A 
ATOM     26  C   UNL     1       8.697  15.411  26.488  0.00  0.00    +0.010 A 
BRANCH  24  27
ATOM     27  N   UNL     1      11.983  15.351  28.357  0.00  0.00    -0.327 N 
ATOM     28  C   UNL     1      11.854  14.181  29.274  0.00  0.00    +0.120 C 
ATOM     29  C   UNL     1      13.181  13.839  29.964  0.00  0.00    +0.100 C 
ATOM     30  N   UNL     1      13.740  14.954  30.657  0.00  0.00    -0.313 NA
ATOM     31  H   UNL     1      13.244  15.145  31.343  0.00  0.00    +0.122 HD
ATOM     32  C   UNL     1      13.873  16.102  29.837  0.00  0.00    +0.100 C 
ATOM     33  C   UNL     1      12.559  16.488  29.149  0.00  0.00    +0.120 C 
ENDBRANCH  24  27
ENDBRANCH   4  21
TORSDOF 5
ENDMDL
MODEL 7
REMARK VINA RESULT:      -6.5      5.106      7.008
REMARK  Name = 6T6D_MM8.pdb
REMARK  7 active torsions:
REMARK  status: ('A' for Active; 'I' for Inactive)
REMARK    1  A    between atoms: _1  and  _2
REMARK    2  A    between atoms: _2  and  _3
REMARK    3  A    between atoms: _5  and  _6
REMARK    4  A    between atoms: _10  and  _11
REMARK    5  A    between atoms: _14  and  _15
REMARK    6  A    between atoms: _23  and  _24
REMARK    7  A    between atoms: _27  and  _28
REMARK                            x       y       z     vdW  Elec       q    Type
REMARK                         _______ _______ _______ _____ _____    ______ ____
ROOT
ATOM      1  C   UNL     1       7.291  15.804  22.497  0.00  0.00    +0.004 A 
ATOM      2  C   UNL     1       8.380  15.562  23.364  0.00  0.00    -0.032 A 
ATOM      3  C   UNL     1       9.354  14.437  23.071  0.00  0.00    +0.045 C 
ATOM      4  C   UNL     1       8.529  16.396  24.514  0.00  0.00    +0.004 A 
ATOM      5  C   UNL     1       7.625  17.408  24.729  0.00  0.00    +0.119 A 
ATOM      6  N   UNL     1       6.607  17.616  23.892  0.00  0.00    -0.262 NA
ATOM      7  C   UNL     1       6.441  16.846  22.812  0.00  0.00    +0.119 A 
ENDROOT
BRANCH   1  12
ATOM      8  C   UNL     1       6.827  14.812  18.902  0.00  0.00    +0.133 A 
ATOM      9  C   UNL     1       6.405  13.485  19.051  0.00  0.00    +0.078 A 
ATOM     10  C   UNL     1       6.269  12.930  20.341  0.00  0.00    +0.017 A 
ATOM     11  C   UNL     1       6.561  13.709  21.469  0.00  0.00    +0.009 A 
ATOM     12  C   UNL     1       7.012  15.033  21.330  0.00  0.00    -0.013 A 
ATOM     13  C   UNL     1       7.123  15.591  20.033  0.00  0.00    +0.055 A 
BRANCH   9  14
ATOM     14  C   UNL     1       6.073  12.645  17.814  0.00  0.00    +0.245 C 
ATOM     15  O   UNL     1       4.992  12.207  17.666  0.00  0.00    -0.270 OA
ATOM     16  N   UNL     1       7.090  12.402  16.817  0.00  0.00    -0.325 N 
ATOM     17  H   UNL     1       7.881  12.722  16.920  0.00  0.00    +0.145 HD
ATOM     18  H   UNL     1       6.903  11.937  16.119  0.00  0.00    +0.145 HD
ENDBRANCH   9  14
BRANCH   8  20
ATOM     19  C   UNL     1       7.061  16.787  17.511  0.00  0.00    +0.277 C 
ATOM     20  O   UNL     1       6.953  15.364  17.571  0.00  0.00    -0.494 OA
ENDBRANCH   8  20
ENDBRANCH   1  12
BRANCH   4  21
ATOM     21  C   UNL     1       9.583  16.233  25.466  0.00  0.00    -0.016 A 
ATOM     22  C   UNL     1      10.770  16.982  25.380  0.00  0.00    +0.010 A 
ATOM     23  C   UNL     1      11.791  16.802  26.344  0.00  0.00    +0.024 A 
ATOM     24  C   UNL     1      11.615  15.889  27.390  0.00  0.00    +0.030 A 
ATOM     25  C   UNL     1      10.422  15.153  27.486  0.00  0.00    +0.024 A 
ATOM     26  C   UNL     1       9.411  15.341  26.536  0.00  0.00    +0.010 A 
BRANCH  24  27
ATOM     27  N   UNL     1      12.675  15.688  28.414  0.00  0.00    -0.327 N 
ATOM     28  C   UNL     1      13.509  16.832  28.885  0.00  0.00    +0.120 C 
ATOM     29  C   UNL     1      14.182  16.539  30.232  0.00  0.00    +0.100 C 
ATOM     30  N   UNL     1      14.953  15.339  30.209  0.00  0.00    -0.313 NA
ATOM     31  H   UNL     1      15.648  15.451  29.701  0.00  0.00    +0.122 HD
ATOM     32  C   UNL     1      14.213  14.218  29.755  0.00  0.00    +0.100 C 
ATOM     33  C   UNL     1      13.545  14.466  28.398  0.00  0.00    +0.120 C 
ENDBRANCH  24  27
ENDBRANCH   4  21
TORSDOF 5
ENDMDL
MODEL 8
REMARK VINA RESULT:      -6.5      5.100     10.538
REMARK  Name = 6T6D_MM8.pdb
REMARK  7 active torsions:
REMARK  status: ('A' for Active; 'I' for Inactive)
REMARK    1  A    between atoms: _1  and  _2
REMARK    2  A    between atoms: _2  and  _3
REMARK    3  A    between atoms: _5  and  _6
REMARK    4  A    between atoms: _10  and  _11
REMARK    5  A    between atoms: _14  and  _15
REMARK    6  A    between atoms: _23  and  _24
REMARK    7  A    between atoms: _27  and  _28
REMARK                            x       y       z     vdW  Elec       q    Type
REMARK                         _______ _______ _______ _____ _____    ______ ____
ROOT
ATOM      1  C   UNL     1       8.583  16.310  24.621  0.00  0.00    +0.004 A 
ATOM      2  C   UNL     1       8.413  15.612  23.405  0.00  0.00    -0.032 A 
ATOM      3  C   UNL     1       9.363  14.490  23.029  0.00  0.00    +0.045 C 
ATOM      4  C   UNL     1       7.336  15.995  22.548  0.00  0.00    +0.004 A 
ATOM      5  C   UNL     1       6.499  17.011  22.939  0.00  0.00    +0.119 A 
ATOM      6  N   UNL     1       6.681  17.652  24.094  0.00  0.00    -0.262 NA
ATOM      7  C   UNL     1       7.684  17.318  24.912  0.00  0.00    +0.119 A 
ENDROOT
BRANCH   1  12
ATOM      8  C   UNL     1      11.807  16.569  26.534  0.00  0.00    +0.133 A 
ATOM      9  C   UNL     1      11.695  15.461  27.384  0.00  0.00    +0.078 A 
ATOM     10  C   UNL     1      10.557  14.630  27.311  0.00  0.00    +0.017 A 
ATOM     11  C   UNL     1       9.540  14.921  26.391  0.00  0.00    +0.009 A 
ATOM     12  C   UNL     1       9.629  16.047  25.554  0.00  0.00    -0.013 A 
ATOM     13  C   UNL     1      10.786  16.862  25.615  0.00  0.00    +0.055 A 
BRANCH   9  14
ATOM     14  C   UNL     1      12.818  15.141  28.375  0.00  0.00    +0.245 C 
ATOM     15  O   UNL     1      12.623  15.202  29.533  0.00  0.00    -0.270 OA
ATOM     16  N   UNL     1      14.118  14.747  27.885  0.00  0.00    -0.325 N 
ATOM     17  H   UNL     1      14.264  14.698  27.040  0.00  0.00    +0.145 HD
ATOM     18  H   UNL     1      14.747  14.561  28.441  0.00  0.00    +0.145 HD
ENDBRANCH   9  14
BRANCH   8  20
ATOM     19  C   UNL     1      13.115  18.381  25.586  0.00  0.00    +0.277 C 
ATOM     20  O   UNL     1      12.986  17.403  26.620  0.00  0.00    -0.494 OA
ENDBRANCH   8  20
ENDBRANCH   1  12
BRANCH   4  21
ATOM     21  C   UNL     1       7.079  15.369  21.288  0.00  0.00    -0.016 A 
ATOM     22  C   UNL     1       6.386  14.148  21.206  0.00  0.00    +0.010 A 
ATOM     23  C   UNL     1       6.141  13.560  19.942  0.00  0.00    +0.024 A 
ATOM     24  C   UNL     1       6.576  14.197  18.775  0.00  0.00    +0.030 A 
ATOM     25  C   UNL     1       7.255  15.424  18.856  0.00  0.00    +0.024 A 
ATOM     26  C   UNL     1       7.487  16.008  20.107  0.00  0.00    +0.010 A 
BRANCH  24  27
ATOM     27  N   UNL     1       6.326  13.595  17.437  0.00  0.00    -0.327 N 
ATOM     28  C   UNL     1       5.336  14.203  16.500  0.00  0.00    +0.120 C 
ATOM     29  C   UNL     1       5.562  13.751  15.051  0.00  0.00    +0.100 C 
ATOM     30  N   UNL     1       5.567  12.331  14.916  0.00  0.00    -0.313 NA
ATOM     31  H   UNL     1       4.768  12.024  15.059  0.00  0.00    +0.122 HD
ATOM     32  C   UNL     1       6.481  11.697  15.795  0.00  0.00    +0.100 C 
ATOM     33  C   UNL     1       6.270  12.107  17.256  0.00  0.00    +0.120 C 
ENDBRANCH  24  27
ENDBRANCH   4  21
TORSDOF 5
ENDMDL
MODEL 9
REMARK VINA RESULT:      -6.4      4.570      9.974
REMARK  Name = 6T6D_MM8.pdb
REMARK  7 active torsions:
REMARK  status: ('A' for Active; 'I' for Inactive)
REMARK    1  A    between atoms: _1  and  _2
REMARK    2  A    between atoms: _2  and  _3
REMARK    3  A    between atoms: _5  and  _6
REMARK    4  A    between atoms: _10  and  _11
REMARK    5  A    between atoms: _14  and  _15
REMARK    6  A    between atoms: _23  and  _24
REMARK    7  A    between atoms: _27  and  _28
REMARK                            x       y       z     vdW  Elec       q    Type
REMARK                         _______ _______ _______ _____ _____    ______ ____
ROOT
ATOM      1  C   UNL     1      11.538  15.896  27.676  0.00  0.00    +0.004 A 
ATOM      2  C   UNL     1      10.841  15.561  26.494  0.00  0.00    -0.032 A 
ATOM      3  C   UNL     1      10.753  14.115  26.043  0.00  0.00    +0.045 C 
ATOM      4  C   UNL     1      10.235  16.614  25.743  0.00  0.00    +0.004 A 
ATOM      5  C   UNL     1      10.335  17.905  26.199  0.00  0.00    +0.119 A 
ATOM      6  N   UNL     1      10.997  18.193  27.321  0.00  0.00    -0.262 NA
ATOM      7  C   UNL     1      11.579  17.228  28.040  0.00  0.00    +0.119 A 
ENDROOT
BRANCH   1  12
ATOM      8  C   UNL     1      12.180  13.184  30.197  0.00  0.00    +0.133 A 
ATOM      9  C   UNL     1      13.579  13.119  30.160  0.00  0.00    +0.078 A 
ATOM     10  C   UNL     1      14.301  13.982  29.306  0.00  0.00    +0.017 A 
ATOM     11  C   UNL     1      13.613  14.895  28.496  0.00  0.00    +0.009 A 
ATOM     12  C   UNL     1      12.209  14.948  28.504  0.00  0.00    -0.013 A 
ATOM     13  C   UNL     1      11.492  14.097  29.381  0.00  0.00    +0.055 A 
BRANCH   9  14
ATOM     14  C   UNL     1      14.323  12.129  31.060  0.00  0.00    +0.245 C 
ATOM     15  O   UNL     1      15.042  12.519  31.904  0.00  0.00    -0.270 OA
ATOM     16  N   UNL     1      14.129  10.710  30.880  0.00  0.00    -0.325 N 
ATOM     17  H   UNL     1      13.602  10.420  30.266  0.00  0.00    +0.145 HD
ATOM     18  H   UNL     1      14.541  10.153  31.389  0.00  0.00    +0.145 HD
ENDBRANCH   9  14
BRANCH   8  20
ATOM     19  C   UNL     1      10.076  12.605  31.259  0.00  0.00    +0.277 C 
ATOM     20  O   UNL     1      11.460  12.297  31.084  0.00  0.00    -0.494 OA
ENDBRANCH   8  20
ENDBRANCH   1  12
BRANCH   4  21
ATOM     21  C   UNL     1       9.518  16.393  24.525  0.00  0.00    -0.016 A 
ATOM     22  C   UNL     1       8.126  16.196  24.521  0.00  0.00    +0.010 A 
ATOM     23  C   UNL     1       7.447  15.988  23.296  0.00  0.00    +0.024 A 
ATOM     24  C   UNL     1       8.156  15.991  22.090  0.00  0.00    +0.030 A 
ATOM     25  C   UNL     1       9.545  16.204  22.093  0.00  0.00    +0.024 A 
ATOM     26  C   UNL     1      10.212  16.419  23.306  0.00  0.00    +0.010 A 
BRANCH  24  27
ATOM     27  N   UNL     1       7.459  15.777  20.794  0.00  0.00    -0.327 N 
ATOM     28  C   UNL     1       6.790  14.478  20.490  0.00  0.00    +0.120 C 
ATOM     29  C   UNL     1       5.757  14.610  19.364  0.00  0.00    +0.100 C 
ATOM     30  N   UNL     1       6.312  15.172  18.176  0.00  0.00    -0.313 NA
ATOM     31  H   UNL     1       6.867  14.607  17.822  0.00  0.00    +0.122 HD
ATOM     32  C   UNL     1       6.975  16.404  18.407  0.00  0.00    +0.100 C 
ATOM     33  C   UNL     1       8.032  16.304  19.511  0.00  0.00    +0.120 C 
ENDBRANCH  24  27
ENDBRANCH   4  21
TORSDOF 5
ENDMDL
