MODEL 1
REMARK VINA RESULT:     -10.1      0.000      0.000
REMARK  Name = 5OXG_B4B.pdb
REMARK  3 active torsions:
REMARK  status: ('A' for Active; 'I' for Inactive)
REMARK    1  A    between atoms: _3  and  _7
REMARK    2  A    between atoms: _10  and  _13
REMARK    3  A    between atoms: _17  and  _22
REMARK                            x       y       z     vdW  Elec       q    Type
REMARK                         _______ _______ _______ _____ _____    ______ ____
ROOT
ATOM      1  C   UNL     1       5.851  25.911  13.861  0.00  0.00    +0.038 A 
ATOM      2  C   UNL     1       5.693  24.520  13.816  0.00  0.00    +0.104 A 
ATOM      3  N   UNL     1       5.876  23.763  14.947  0.00  0.00    -0.211 N 
ATOM      4  N   UNL     1       5.798  22.408  15.137  0.00  0.00    -0.162 NA
ATOM      5  C   UNL     1       6.041  22.133  16.425  0.00  0.00    +0.124 A 
ATOM      6  C   UNL     1       6.294  23.319  17.103  0.00  0.00    +0.057 A 
ATOM      7  C   UNL     1       6.174  24.335  16.110  0.00  0.00    +0.165 A 
ATOM      8  N   UNL     1       6.328  25.693  16.200  0.00  0.00    -0.225 NA
ATOM      9  C   UNL     1       6.149  26.475  15.115  0.00  0.00    +0.102 A 
ENDROOT
BRANCH   6  10
ATOM     10  C   UNL     1       6.619  23.382  18.471  0.00  0.00    +0.006 A 
ATOM     11  C   UNL     1       6.049  24.290  19.433  0.00  0.00    +0.018 A 
ATOM     12  C   UNL     1       5.088  25.306  19.089  0.00  0.00    +0.003 A 
ATOM     13  C   UNL     1       4.601  26.151  20.082  0.00  0.00    +0.021 A 
ATOM     14  C   UNL     1       5.035  26.003  21.406  0.00  0.00    +0.099 A 
ATOM     15  N   UNL     1       5.936  25.055  21.739  0.00  0.00    -0.244 NA
ATOM     16  C   UNL     1       6.437  24.210  20.761  0.00  0.00    +0.081 A 
ATOM     17  C   UNL     1       7.383  23.243  21.201  0.00  0.00    +0.019 A 
ATOM     18  C   UNL     1       7.912  22.341  20.279  0.00  0.00    +0.002 A 
ATOM     19  C   UNL     1       7.536  22.427  18.931  0.00  0.00    +0.000 A 
ENDBRANCH   6  10
BRANCH   1  23
ATOM     20  C   UNL     1       5.248  28.293  10.393  0.00  0.00    +0.048 A 
ATOM     21  C   UNL     1       5.420  28.872  11.633  0.00  0.00    +0.015 A 
ATOM     22  C   UNL     1       5.608  28.098  12.773  0.00  0.00    +0.001 A 
ATOM     23  C   UNL     1       5.621  26.706  12.716  0.00  0.00    +0.003 A 
ATOM     24  C   UNL     1       5.486  26.121  11.455  0.00  0.00    +0.001 A 
ATOM     25  C   UNL     1       5.310  26.903  10.322  0.00  0.00    +0.015 A 
BRANCH  20  30
ATOM     26  C   UNL     1       3.665  30.545   7.718  0.00  0.00    +0.110 C 
ATOM     27  N   UNL     1       4.383  30.096   6.557  0.00  0.00    -0.214 NA
ATOM     28  C   UNL     1       5.718  29.626   6.877  0.00  0.00    +0.110 C 
ATOM     29  C   UNL     1       5.752  28.647   8.047  0.00  0.00    +0.110 C 
ATOM     30  N   UNL     1       5.094  29.127   9.240  0.00  0.00    -0.305 N 
ATOM     31  C   UNL     1       3.773  29.597   8.908  0.00  0.00    +0.110 C 
ENDBRANCH  20  30
ENDBRANCH   1  23
TORSDOF 3
ENDMDL
MODEL 2
REMARK VINA RESULT:      -9.7      3.973     10.513
REMARK  Name = 5OXG_B4B.pdb
REMARK  3 active torsions:
REMARK  status: ('A' for Active; 'I' for Inactive)
REMARK    1  A    between atoms: _3  and  _7
REMARK    2  A    between atoms: _10  and  _13
REMARK    3  A    between atoms: _17  and  _22
REMARK                            x       y       z     vdW  Elec       q    Type
REMARK                         _______ _______ _______ _____ _____    ______ ____
ROOT
ATOM      1  C   UNL     1       6.341  21.184  14.691  0.00  0.00    +0.038 A 
ATOM      2  C   UNL     1       6.631  21.189  13.321  0.00  0.00    +0.104 A 
ATOM      3  N   UNL     1       6.547  22.353  12.598  0.00  0.00    -0.211 N 
ATOM      4  N   UNL     1       6.761  22.594  11.265  0.00  0.00    -0.162 NA
ATOM      5  C   UNL     1       6.573  23.899  11.022  0.00  0.00    +0.124 A 
ATOM      6  C   UNL     1       6.221  24.536  12.205  0.00  0.00    +0.057 A 
ATOM      7  C   UNL     1       6.221  23.500  13.186  0.00  0.00    +0.165 A 
ATOM      8  N   UNL     1       5.938  23.541  14.525  0.00  0.00    -0.225 NA
ATOM      9  C   UNL     1       6.017  22.422  15.276  0.00  0.00    +0.102 A 
ENDROOT
BRANCH   6  10
ATOM     10  C   UNL     1       5.922  25.908  12.294  0.00  0.00    +0.006 A 
ATOM     11  C   UNL     1       6.303  26.788  13.369  0.00  0.00    +0.018 A 
ATOM     12  C   UNL     1       7.013  26.343  14.540  0.00  0.00    +0.003 A 
ATOM     13  C   UNL     1       7.328  27.261  15.538  0.00  0.00    +0.021 A 
ATOM     14  C   UNL     1       6.967  28.607  15.395  0.00  0.00    +0.099 A 
ATOM     15  N   UNL     1       6.300  29.034  14.302  0.00  0.00    -0.244 NA
ATOM     16  C   UNL     1       5.973  28.132  13.301  0.00  0.00    +0.081 A 
ATOM     17  C   UNL     1       5.269  28.668  12.188  0.00  0.00    +0.019 A 
ATOM     18  C   UNL     1       4.927  27.826  11.131  0.00  0.00    +0.002 A 
ATOM     19  C   UNL     1       5.244  26.463  11.200  0.00  0.00    +0.000 A 
ENDBRANCH   6  10
BRANCH   1  23
ATOM     20  C   UNL     1       6.803  17.660  17.022  0.00  0.00    +0.048 A 
ATOM     21  C   UNL     1       7.085  17.662  15.672  0.00  0.00    +0.015 A 
ATOM     22  C   UNL     1       6.926  18.810  14.902  0.00  0.00    +0.001 A 
ATOM     23  C   UNL     1       6.467  20.003  15.456  0.00  0.00    +0.003 A 
ATOM     24  C   UNL     1       6.220  20.011  16.831  0.00  0.00    +0.001 A 
ATOM     25  C   UNL     1       6.392  18.864  17.592  0.00  0.00    +0.015 A 
BRANCH  20  30
ATOM     26  C   UNL     1       6.674  13.994  18.153  0.00  0.00    +0.110 C 
ATOM     27  N   UNL     1       6.593  14.175  19.576  0.00  0.00    -0.214 NA
ATOM     28  C   UNL     1       7.253  15.388  20.021  0.00  0.00    +0.110 C 
ATOM     29  C   UNL     1       6.863  16.622  19.213  0.00  0.00    +0.110 C 
ATOM     30  N   UNL     1       7.015  16.468  17.786  0.00  0.00    -0.305 N 
ATOM     31  C   UNL     1       6.360  15.258  17.358  0.00  0.00    +0.110 C 
ENDBRANCH  20  30
ENDBRANCH   1  23
TORSDOF 3
ENDMDL
MODEL 3
REMARK VINA RESULT:      -9.7      4.673      6.508
REMARK  Name = 5OXG_B4B.pdb
REMARK  3 active torsions:
REMARK  status: ('A' for Active; 'I' for Inactive)
REMARK    1  A    between atoms: _3  and  _7
REMARK    2  A    between atoms: _10  and  _13
REMARK    3  A    between atoms: _17  and  _22
REMARK                            x       y       z     vdW  Elec       q    Type
REMARK                         _______ _______ _______ _____ _____    ______ ____
ROOT
ATOM      1  C   UNL     1       5.756  22.039  14.329  0.00  0.00    +0.038 A 
ATOM      2  C   UNL     1       6.131  23.384  14.223  0.00  0.00    +0.104 A 
ATOM      3  N   UNL     1       6.272  24.156  15.350  0.00  0.00    -0.211 N 
ATOM      4  N   UNL     1       6.605  25.479  15.491  0.00  0.00    -0.162 NA
ATOM      5  C   UNL     1       6.634  25.785  16.795  0.00  0.00    +0.124 A 
ATOM      6  C   UNL     1       6.309  24.655  17.535  0.00  0.00    +0.057 A 
ATOM      7  C   UNL     1       6.087  23.638  16.560  0.00  0.00    +0.165 A 
ATOM      8  N   UNL     1       5.729  22.324  16.708  0.00  0.00    -0.225 NA
ATOM      9  C   UNL     1       5.588  21.527  15.629  0.00  0.00    +0.102 A 
ENDROOT
BRANCH   6  10
ATOM     10  C   UNL     1       6.217  24.642  18.939  0.00  0.00    +0.006 A 
ATOM     11  C   UNL     1       6.908  23.737  19.822  0.00  0.00    +0.018 A 
ATOM     12  C   UNL     1       7.761  22.675  19.355  0.00  0.00    +0.003 A 
ATOM     13  C   UNL     1       8.379  21.838  20.280  0.00  0.00    +0.021 A 
ATOM     14  C   UNL     1       8.180  22.038  21.652  0.00  0.00    +0.099 A 
ATOM     15  N   UNL     1       7.381  23.030  22.100  0.00  0.00    -0.244 NA
ATOM     16  C   UNL     1       6.753  23.869  21.192  0.00  0.00    +0.081 A 
ATOM     17  C   UNL     1       5.929  24.884  21.752  0.00  0.00    +0.019 A 
ATOM     18  C   UNL     1       5.284  25.781  20.902  0.00  0.00    +0.002 A 
ATOM     19  C   UNL     1       5.423  25.644  19.514  0.00  0.00    +0.000 A 
ENDBRANCH   6  10
BRANCH   1  23
ATOM     20  C   UNL     1       5.526  19.609  10.850  0.00  0.00    +0.048 A 
ATOM     21  C   UNL     1       4.901  20.836  10.902  0.00  0.00    +0.015 A 
ATOM     22  C   UNL     1       4.964  21.632  12.042  0.00  0.00    +0.001 A 
ATOM     23  C   UNL     1       5.652  21.222  13.181  0.00  0.00    +0.003 A 
ATOM     24  C   UNL     1       6.319  19.996  13.114  0.00  0.00    +0.001 A 
ATOM     25  C   UNL     1       6.258  19.214  11.968  0.00  0.00    +0.015 A 
BRANCH  20  30
ATOM     26  C   UNL     1       5.694  18.639   7.139  0.00  0.00    +0.110 C 
ATOM     27  N   UNL     1       4.588  17.725   7.070  0.00  0.00    -0.214 NA
ATOM     28  C   UNL     1       4.356  17.036   8.325  0.00  0.00    +0.110 C 
ATOM     29  C   UNL     1       4.319  17.969   9.532  0.00  0.00    +0.110 C 
ATOM     30  N   UNL     1       5.467  18.837   9.645  0.00  0.00    -0.305 N 
ATOM     31  C   UNL     1       5.690  19.511   8.391  0.00  0.00    +0.110 C 
ENDBRANCH  20  30
ENDBRANCH   1  23
TORSDOF 3
ENDMDL
MODEL 4
REMARK VINA RESULT:      -9.7      1.765      3.272
REMARK  Name = 5OXG_B4B.pdb
REMARK  3 active torsions:
REMARK  status: ('A' for Active; 'I' for Inactive)
REMARK    1  A    between atoms: _3  and  _7
REMARK    2  A    between atoms: _10  and  _13
REMARK    3  A    between atoms: _17  and  _22
REMARK                            x       y       z     vdW  Elec       q    Type
REMARK                         _______ _______ _______ _____ _____    ______ ____
ROOT
ATOM      1  C   UNL     1       5.729  27.273  13.319  0.00  0.00    +0.038 A 
ATOM      2  C   UNL     1       6.456  28.199  14.077  0.00  0.00    +0.104 A 
ATOM      3  N   UNL     1       6.771  27.929  15.386  0.00  0.00    -0.211 N 
ATOM      4  N   UNL     1       7.445  28.678  16.315  0.00  0.00    -0.162 NA
ATOM      5  C   UNL     1       7.524  27.986  17.460  0.00  0.00    +0.124 A 
ATOM      6  C   UNL     1       6.887  26.762  17.296  0.00  0.00    +0.057 A 
ATOM      7  C   UNL     1       6.424  26.774  15.948  0.00  0.00    +0.165 A 
ATOM      8  N   UNL     1       5.721  25.838  15.238  0.00  0.00    -0.225 NA
ATOM      9  C   UNL     1       5.397  26.059  13.947  0.00  0.00    +0.102 A 
ENDROOT
BRANCH   6  10
ATOM     10  C   UNL     1       6.761  25.806  18.321  0.00  0.00    +0.006 A 
ATOM     11  C   UNL     1       7.499  24.572  18.420  0.00  0.00    +0.018 A 
ATOM     12  C   UNL     1       8.444  24.135  17.426  0.00  0.00    +0.003 A 
ATOM     13  C   UNL     1       9.102  22.920  17.596  0.00  0.00    +0.021 A 
ATOM     14  C   UNL     1       8.853  22.138  18.731  0.00  0.00    +0.099 A 
ATOM     15  N   UNL     1       7.967  22.538  19.668  0.00  0.00    -0.244 NA
ATOM     16  C   UNL     1       7.298  23.742  19.511  0.00  0.00    +0.081 A 
ATOM     17  C   UNL     1       6.382  24.083  20.545  0.00  0.00    +0.019 A 
ATOM     18  C   UNL     1       5.690  25.291  20.469  0.00  0.00    +0.002 A 
ATOM     19  C   UNL     1       5.876  26.128  19.359  0.00  0.00    +0.000 A 
ENDBRANCH   6  10
BRANCH   1  23
ATOM     20  C   UNL     1       4.937  27.996   9.206  0.00  0.00    +0.048 A 
ATOM     21  C   UNL     1       5.129  29.039  10.087  0.00  0.00    +0.015 A 
ATOM     22  C   UNL     1       5.379  28.809  11.437  0.00  0.00    +0.001 A 
ATOM     23  C   UNL     1       5.436  27.518  11.959  0.00  0.00    +0.003 A 
ATOM     24  C   UNL     1       5.280  26.462  11.058  0.00  0.00    +0.001 A 
ATOM     25  C   UNL     1       5.043  26.702   9.712  0.00  0.00    +0.015 A 
BRANCH  20  30
ATOM     26  C   UNL     1       5.221  27.863   5.380  0.00  0.00    +0.110 C 
ATOM     27  N   UNL     1       5.064  29.257   5.070  0.00  0.00    -0.214 NA
ATOM     28  C   UNL     1       4.236  29.952   6.036  0.00  0.00    +0.110 C 
ATOM     29  C   UNL     1       4.633  29.677   7.484  0.00  0.00    +0.110 C 
ATOM     30  N   UNL     1       4.718  28.275   7.819  0.00  0.00    -0.305 N 
ATOM     31  C   UNL     1       5.538  27.595   6.848  0.00  0.00    +0.110 C 
ENDBRANCH  20  30
ENDBRANCH   1  23
TORSDOF 3
ENDMDL
MODEL 5
REMARK VINA RESULT:      -9.5      2.852      5.139
REMARK  Name = 5OXG_B4B.pdb
REMARK  3 active torsions:
REMARK  status: ('A' for Active; 'I' for Inactive)
REMARK    1  A    between atoms: _3  and  _7
REMARK    2  A    between atoms: _10  and  _13
REMARK    3  A    between atoms: _17  and  _22
REMARK                            x       y       z     vdW  Elec       q    Type
REMARK                         _______ _______ _______ _____ _____    ______ ____
ROOT
ATOM      1  C   UNL     1       6.862  24.236  17.443  0.00  0.00    +0.038 A 
ATOM      2  C   UNL     1       6.314  24.599  18.680  0.00  0.00    +0.104 A 
ATOM      3  N   UNL     1       6.790  24.042  19.841  0.00  0.00    -0.211 N 
ATOM      4  N   UNL     1       6.404  24.225  21.144  0.00  0.00    -0.162 NA
ATOM      5  C   UNL     1       7.178  23.474  21.938  0.00  0.00    +0.124 A 
ATOM      6  C   UNL     1       8.088  22.774  21.156  0.00  0.00    +0.057 A 
ATOM      7  C   UNL     1       7.798  23.175  19.819  0.00  0.00    +0.165 A 
ATOM      8  N   UNL     1       8.369  22.801  18.632  0.00  0.00    -0.225 NA
ATOM      9  C   UNL     1       7.938  23.329  17.468  0.00  0.00    +0.102 A 
ENDROOT
BRANCH   6  10
ATOM     10  C   UNL     1       9.028  21.866  21.678  0.00  0.00    +0.006 A 
ATOM     11  C   UNL     1      10.367  22.188  22.103  0.00  0.00    +0.018 A 
ATOM     12  C   UNL     1      10.935  23.506  21.993  0.00  0.00    +0.003 A 
ATOM     13  C   UNL     1      12.244  23.724  22.416  0.00  0.00    +0.021 A 
ATOM     14  C   UNL     1      12.994  22.670  22.953  0.00  0.00    +0.099 A 
ATOM     15  N   UNL     1      12.471  21.430  23.059  0.00  0.00    -0.244 NA
ATOM     16  C   UNL     1      11.171  21.194  22.637  0.00  0.00    +0.081 A 
ATOM     17  C   UNL     1      10.704  19.859  22.783  0.00  0.00    +0.019 A 
ATOM     18  C   UNL     1       9.398  19.551  22.403  0.00  0.00    +0.002 A 
ATOM     19  C   UNL     1       8.584  20.547  21.847  0.00  0.00    +0.000 A 
ENDBRANCH   6  10
BRANCH   1  23
ATOM     20  C   UNL     1       5.591  26.020  13.802  0.00  0.00    +0.048 A 
ATOM     21  C   UNL     1       6.018  26.793  14.861  0.00  0.00    +0.015 A 
ATOM     22  C   UNL     1       6.427  26.215  16.059  0.00  0.00    +0.001 A 
ATOM     23  C   UNL     1       6.413  24.835  16.246  0.00  0.00    +0.003 A 
ATOM     24  C   UNL     1       6.017  24.051  15.159  0.00  0.00    +0.001 A 
ATOM     25  C   UNL     1       5.622  24.637  13.964  0.00  0.00    +0.015 A 
BRANCH  20  30
ATOM     26  C   UNL     1       4.971  26.624  10.062  0.00  0.00    +0.110 C 
ATOM     27  N   UNL     1       5.332  28.011   9.970  0.00  0.00    -0.214 NA
ATOM     28  C   UNL     1       5.087  28.733  11.204  0.00  0.00    +0.110 C 
ATOM     29  C   UNL     1       5.637  28.027  12.439  0.00  0.00    +0.110 C 
ATOM     30  N   UNL     1       5.214  26.653  12.574  0.00  0.00    -0.305 N 
ATOM     31  C   UNL     1       5.457  25.949  11.340  0.00  0.00    +0.110 C 
ENDBRANCH  20  30
ENDBRANCH   1  23
TORSDOF 3
ENDMDL
MODEL 6
REMARK VINA RESULT:      -9.4      3.839     10.957
REMARK  Name = 5OXG_B4B.pdb
REMARK  3 active torsions:
REMARK  status: ('A' for Active; 'I' for Inactive)
REMARK    1  A    between atoms: _3  and  _7
REMARK    2  A    between atoms: _10  and  _13
REMARK    3  A    between atoms: _17  and  _22
REMARK                            x       y       z     vdW  Elec       q    Type
REMARK                         _______ _______ _______ _____ _____    ______ ____
ROOT
ATOM      1  C   UNL     1       6.125  21.258  14.862  0.00  0.00    +0.038 A 
ATOM      2  C   UNL     1       5.671  21.160  13.540  0.00  0.00    +0.104 A 
ATOM      3  N   UNL     1       5.434  22.293  12.802  0.00  0.00    -0.211 N 
ATOM      4  N   UNL     1       4.976  22.444  11.519  0.00  0.00    -0.162 NA
ATOM      5  C   UNL     1       4.921  23.750  11.225  0.00  0.00    +0.124 A 
ATOM      6  C   UNL     1       5.339  24.482  12.329  0.00  0.00    +0.057 A 
ATOM      7  C   UNL     1       5.659  23.500  13.313  0.00  0.00    +0.165 A 
ATOM      8  N   UNL     1       6.111  23.640  14.598  0.00  0.00    -0.225 NA
ATOM      9  C   UNL     1       6.366  22.553  15.356  0.00  0.00    +0.102 A 
ENDROOT
BRANCH   6  10
ATOM     10  C   UNL     1       5.371  25.889  12.366  0.00  0.00    +0.006 A 
ATOM     11  C   UNL     1       5.314  26.764  11.223  0.00  0.00    +0.018 A 
ATOM     12  C   UNL     1       5.269  26.289   9.865  0.00  0.00    +0.003 A 
ATOM     13  C   UNL     1       5.230  27.209   8.820  0.00  0.00    +0.021 A 
ATOM     14  C   UNL     1       5.224  28.583   9.092  0.00  0.00    +0.099 A 
ATOM     15  N   UNL     1       5.268  29.038  10.362  0.00  0.00    -0.244 NA
ATOM     16  C   UNL     1       5.313  28.137  11.414  0.00  0.00    +0.081 A 
ATOM     17  C   UNL     1       5.360  28.705  12.717  0.00  0.00    +0.019 A 
ATOM     18  C   UNL     1       5.383  27.861  13.826  0.00  0.00    +0.002 A 
ATOM     19  C   UNL     1       5.400  26.472  13.640  0.00  0.00    +0.000 A 
ENDBRANCH   6  10
BRANCH   1  23
ATOM     20  C   UNL     1       6.920  17.740  17.110  0.00  0.00    +0.048 A 
ATOM     21  C   UNL     1       6.456  18.885  17.722  0.00  0.00    +0.015 A 
ATOM     22  C   UNL     1       6.202  20.042  16.993  0.00  0.00    +0.001 A 
ATOM     23  C   UNL     1       6.416  20.101  15.617  0.00  0.00    +0.003 A 
ATOM     24  C   UNL     1       6.849  18.929  14.992  0.00  0.00    +0.001 A 
ATOM     25  C   UNL     1       7.088  17.775  15.727  0.00  0.00    +0.015 A 
BRANCH  20  30
ATOM     26  C   UNL     1       6.828  14.083  18.273  0.00  0.00    +0.110 C 
ATOM     27  N   UNL     1       6.706  14.276  19.692  0.00  0.00    -0.214 NA
ATOM     28  C   UNL     1       7.331  15.504  20.142  0.00  0.00    +0.110 C 
ATOM     29  C   UNL     1       6.940  16.724  19.312  0.00  0.00    +0.110 C 
ATOM     30  N   UNL     1       7.133  16.559  17.891  0.00  0.00    -0.305 N 
ATOM     31  C   UNL     1       6.513  15.333  17.457  0.00  0.00    +0.110 C 
ENDBRANCH  20  30
ENDBRANCH   1  23
TORSDOF 3
ENDMDL
MODEL 7
REMARK VINA RESULT:      -9.4      4.502     12.331
REMARK  Name = 5OXG_B4B.pdb
REMARK  3 active torsions:
REMARK  status: ('A' for Active; 'I' for Inactive)
REMARK    1  A    between atoms: _3  and  _7
REMARK    2  A    between atoms: _10  and  _13
REMARK    3  A    between atoms: _17  and  _22
REMARK                            x       y       z     vdW  Elec       q    Type
REMARK                         _______ _______ _______ _____ _____    ______ ____
ROOT
ATOM      1  C   UNL     1       9.242  22.862  20.720  0.00  0.00    +0.038 A 
ATOM      2  C   UNL     1       7.933  23.214  21.069  0.00  0.00    +0.104 A 
ATOM      3  N   UNL     1       7.102  23.801  20.147  0.00  0.00    -0.211 N 
ATOM      4  N   UNL     1       5.810  24.244  20.262  0.00  0.00    -0.162 NA
ATOM      5  C   UNL     1       5.409  24.732  19.081  0.00  0.00    +0.124 A 
ATOM      6  C   UNL     1       6.449  24.622  18.166  0.00  0.00    +0.057 A 
ATOM      7  C   UNL     1       7.511  24.017  18.900  0.00  0.00    +0.165 A 
ATOM      8  N   UNL     1       8.781  23.679  18.515  0.00  0.00    -0.225 NA
ATOM      9  C   UNL     1       9.627  23.092  19.387  0.00  0.00    +0.102 A 
ENDROOT
BRANCH   6  10
ATOM     10  C   UNL     1       6.368  25.073  16.835  0.00  0.00    +0.006 A 
ATOM     11  C   UNL     1       6.722  26.389  16.368  0.00  0.00    +0.018 A 
ATOM     12  C   UNL     1       7.165  27.446  17.240  0.00  0.00    +0.003 A 
ATOM     13  C   UNL     1       7.473  28.692  16.702  0.00  0.00    +0.021 A 
ATOM     14  C   UNL     1       7.363  28.910  15.323  0.00  0.00    +0.099 A 
ATOM     15  N   UNL     1       6.947  27.926  14.496  0.00  0.00    -0.244 NA
ATOM     16  C   UNL     1       6.630  26.681  15.016  0.00  0.00    +0.081 A 
ATOM     17  C   UNL     1       6.199  25.706  14.074  0.00  0.00    +0.019 A 
ATOM     18  C   UNL     1       5.887  24.423  14.519  0.00  0.00    +0.002 A 
ATOM     19  C   UNL     1       5.962  24.125  15.887  0.00  0.00    +0.000 A 
ENDBRANCH   6  10
BRANCH   1  23
ATOM     20  C   UNL     1      11.730  20.918  23.566  0.00  0.00    +0.048 A 
ATOM     21  C   UNL     1      11.800  22.282  23.373  0.00  0.00    +0.015 A 
ATOM     22  C   UNL     1      10.995  22.922  22.436  0.00  0.00    +0.001 A 
ATOM     23  C   UNL     1      10.092  22.216  21.646  0.00  0.00    +0.003 A 
ATOM     24  C   UNL     1       9.993  20.841  21.869  0.00  0.00    +0.001 A 
ATOM     25  C   UNL     1      10.792  20.213  22.814  0.00  0.00    +0.015 A 
BRANCH  20  30
ATOM     26  C   UNL     1      13.219  18.295  25.940  0.00  0.00    +0.110 C 
ATOM     27  N   UNL     1      13.472  19.116  27.092  0.00  0.00    -0.214 NA
ATOM     28  C   UNL     1      13.756  20.494  26.741  0.00  0.00    +0.110 C 
ATOM     29  C   UNL     1      12.750  21.090  25.760  0.00  0.00    +0.110 C 
ATOM     30  N   UNL     1      12.549  20.303  24.566  0.00  0.00    -0.305 N 
ATOM     31  C   UNL     1      12.274  18.936  24.928  0.00  0.00    +0.110 C 
ENDBRANCH  20  30
ENDBRANCH   1  23
TORSDOF 3
ENDMDL
MODEL 8
REMARK VINA RESULT:      -9.4      5.874     11.045
REMARK  Name = 5OXG_B4B.pdb
REMARK  3 active torsions:
REMARK  status: ('A' for Active; 'I' for Inactive)
REMARK    1  A    between atoms: _3  and  _7
REMARK    2  A    between atoms: _10  and  _13
REMARK    3  A    between atoms: _17  and  _22
REMARK                            x       y       z     vdW  Elec       q    Type
REMARK                         _______ _______ _______ _____ _____    ______ ____
ROOT
ATOM      1  C   UNL     1      11.282  24.352  17.664  0.00  0.00    +0.038 A 
ATOM      2  C   UNL     1      10.146  24.004  18.405  0.00  0.00    +0.104 A 
ATOM      3  N   UNL     1       8.902  24.431  18.009  0.00  0.00    -0.211 N 
ATOM      4  N   UNL     1       7.669  24.236  18.575  0.00  0.00    -0.162 NA
ATOM      5  C   UNL     1       6.740  24.833  17.816  0.00  0.00    +0.124 A 
ATOM      6  C   UNL     1       7.361  25.441  16.733  0.00  0.00    +0.057 A 
ATOM      7  C   UNL     1       8.747  25.152  16.902  0.00  0.00    +0.165 A 
ATOM      8  N   UNL     1       9.831  25.506  16.144  0.00  0.00    -0.225 NA
ATOM      9  C   UNL     1      11.071  25.101  16.492  0.00  0.00    +0.102 A 
ENDROOT
BRANCH   6  10
ATOM     10  C   UNL     1       6.673  26.184  15.755  0.00  0.00    +0.006 A 
ATOM     11  C   UNL     1       6.128  25.663  14.527  0.00  0.00    +0.018 A 
ATOM     12  C   UNL     1       6.272  24.290  14.119  0.00  0.00    +0.003 A 
ATOM     13  C   UNL     1       5.724  23.877  12.908  0.00  0.00    +0.021 A 
ATOM     14  C   UNL     1       5.031  24.788  12.102  0.00  0.00    +0.099 A 
ATOM     15  N   UNL     1       4.892  26.078  12.475  0.00  0.00    -0.244 NA
ATOM     16  C   UNL     1       5.436  26.508  13.675  0.00  0.00    +0.081 A 
ATOM     17  C   UNL     1       5.244  27.883  13.987  0.00  0.00    +0.019 A 
ATOM     18  C   UNL     1       5.742  28.383  15.189  0.00  0.00    +0.002 A 
ATOM     19  C   UNL     1       6.457  27.537  16.048  0.00  0.00    +0.000 A 
ENDBRANCH   6  10
BRANCH   1  23
ATOM     20  C   UNL     1      15.126  22.986  18.857  0.00  0.00    +0.048 A 
ATOM     21  C   UNL     1      14.986  24.054  17.996  0.00  0.00    +0.015 A 
ATOM     22  C   UNL     1      13.731  24.500  17.594  0.00  0.00    +0.001 A 
ATOM     23  C   UNL     1      12.562  23.883  18.034  0.00  0.00    +0.003 A 
ATOM     24  C   UNL     1      12.703  22.827  18.937  0.00  0.00    +0.001 A 
ATOM     25  C   UNL     1      13.959  22.397  19.341  0.00  0.00    +0.015 A 
BRANCH  20  30
ATOM     26  C   UNL     1      17.988  21.560  20.981  0.00  0.00    +0.110 C 
ATOM     27  N   UNL     1      19.033  22.486  20.644  0.00  0.00    -0.214 NA
ATOM     28  C   UNL     1      18.889  23.025  19.306  0.00  0.00    +0.110 C 
ATOM     29  C   UNL     1      17.483  23.538  19.007  0.00  0.00    +0.110 C 
ATOM     30  N   UNL     1      16.435  22.582  19.275  0.00  0.00    -0.305 N 
ATOM     31  C   UNL     1      16.593  22.050  20.604  0.00  0.00    +0.110 C 
ENDBRANCH  20  30
ENDBRANCH   1  23
TORSDOF 3
ENDMDL
MODEL 9
REMARK VINA RESULT:      -9.4      4.574     10.623
REMARK  Name = 5OXG_B4B.pdb
REMARK  3 active torsions:
REMARK  status: ('A' for Active; 'I' for Inactive)
REMARK    1  A    between atoms: _3  and  _7
REMARK    2  A    between atoms: _10  and  _13
REMARK    3  A    between atoms: _17  and  _22
REMARK                            x       y       z     vdW  Elec       q    Type
REMARK                         _______ _______ _______ _____ _____    ______ ____
ROOT
ATOM      1  C   UNL     1       6.446  20.906  15.973  0.00  0.00    +0.038 A 
ATOM      2  C   UNL     1       5.648  21.192  14.858  0.00  0.00    +0.104 A 
ATOM      3  N   UNL     1       5.546  22.479  14.389  0.00  0.00    -0.211 N 
ATOM      4  N   UNL     1       4.823  22.994  13.345  0.00  0.00    -0.162 NA
ATOM      5  C   UNL     1       5.056  24.311  13.261  0.00  0.00    +0.124 A 
ATOM      6  C   UNL     1       5.940  24.682  14.266  0.00  0.00    +0.057 A 
ATOM      7  C   UNL     1       6.225  23.470  14.961  0.00  0.00    +0.165 A 
ATOM      8  N   UNL     1       7.024  23.231  16.047  0.00  0.00    -0.225 NA
ATOM      9  C   UNL     1       7.160  21.980  16.536  0.00  0.00    +0.102 A 
ENDROOT
BRANCH   6  10
ATOM     10  C   UNL     1       6.369  26.005  14.479  0.00  0.00    +0.006 A 
ATOM     11  C   UNL     1       7.738  26.447  14.554  0.00  0.00    +0.018 A 
ATOM     12  C   UNL     1       8.863  25.552  14.468  0.00  0.00    +0.003 A 
ATOM     13  C   UNL     1      10.153  26.066  14.565  0.00  0.00    +0.021 A 
ATOM     14  C   UNL     1      10.352  27.442  14.733  0.00  0.00    +0.099 A 
ATOM     15  N   UNL     1       9.304  28.289  14.816  0.00  0.00    -0.244 NA
ATOM     16  C   UNL     1       8.012  27.794  14.727  0.00  0.00    +0.081 A 
ATOM     17  C   UNL     1       6.970  28.757  14.827  0.00  0.00    +0.019 A 
ATOM     18  C   UNL     1       5.645  28.338  14.722  0.00  0.00    +0.002 A 
ATOM     19  C   UNL     1       5.360  26.975  14.563  0.00  0.00    +0.000 A 
ENDBRANCH   6  10
BRANCH   1  23
ATOM     20  C   UNL     1       6.809  16.900  17.346  0.00  0.00    +0.048 A 
ATOM     21  C   UNL     1       6.538  17.930  18.222  0.00  0.00    +0.015 A 
ATOM     22  C   UNL     1       6.427  19.245  17.779  0.00  0.00    +0.001 A 
ATOM     23  C   UNL     1       6.596  19.581  16.438  0.00  0.00    +0.003 A 
ATOM     24  C   UNL     1       6.832  18.532  15.546  0.00  0.00    +0.001 A 
ATOM     25  C   UNL     1       6.929  17.222  15.995  0.00  0.00    +0.015 A 
BRANCH  20  30
ATOM     26  C   UNL     1       6.295  13.109  17.651  0.00  0.00    +0.110 C 
ATOM     27  N   UNL     1       6.175  12.987  19.077  0.00  0.00    -0.214 NA
ATOM     28  C   UNL     1       6.927  14.004  19.787  0.00  0.00    +0.110 C 
ATOM     29  C   UNL     1       6.686  15.416  19.260  0.00  0.00    +0.110 C 
ATOM     30  N   UNL     1       6.879  15.557  17.836  0.00  0.00    -0.305 N 
ATOM     31  C   UNL     1       6.132  14.538  17.143  0.00  0.00    +0.110 C 
ENDBRANCH  20  30
ENDBRANCH   1  23
TORSDOF 3
ENDMDL
