MODEL 1
REMARK VINA RESULT:      -8.1      0.000      0.000
REMARK  Name = 3Q4U_LDN.pdb
REMARK  3 active torsions:
REMARK  status: ('A' for Active; 'I' for Inactive)
REMARK    1  A    between atoms: _18  and  _19
REMARK    2  A    between atoms: _20  and  _30
REMARK    3  A    between atoms: _21  and  _22
REMARK                            x       y       z     vdW  Elec       q    Type
REMARK                         _______ _______ _______ _____ _____    ______ ____
ROOT
ATOM      1  C   UNL     1       6.444  16.243  20.586  0.00  0.00    +0.057 A 
ATOM      2  C   UNL     1       7.519  16.298  21.455  0.00  0.00    +0.165 A 
ATOM      3  N   UNL     1       6.965  16.377  22.767  0.00  0.00    -0.211 N 
ATOM      4  N   UNL     1       5.728  16.388  22.675  0.00  0.00    -0.162 NA
ATOM      5  C   UNL     1       7.787  16.436  23.865  0.00  0.00    +0.104 A 
ATOM      6  C   UNL     1       9.158  16.446  23.682  0.00  0.00    +0.038 A 
ATOM      7  C   UNL     1       9.671  16.333  22.385  0.00  0.00    +0.102 A 
ATOM      8  N   UNL     1       8.863  16.308  21.280  0.00  0.00    -0.225 NA
ATOM      9  C   UNL     1       5.381  16.309  21.367  0.00  0.00    +0.124 A 
ENDROOT
BRANCH   1  14
ATOM     10  C   UNL     1       4.930  12.965  16.804  0.00  0.00    +0.002 A 
ATOM     11  C   UNL     1       5.505  14.069  16.200  0.00  0.00    +0.019 A 
ATOM     12  C   UNL     1       6.008  15.133  16.943  0.00  0.00    +0.081 A 
ATOM     13  C   UNL     1       5.937  15.086  18.354  0.00  0.00    +0.018 A 
ATOM     14  C   UNL     1       6.463  16.160  19.132  0.00  0.00    +0.008 A 
ATOM     15  C   UNL     1       6.947  17.243  18.419  0.00  0.00    +0.021 A 
ATOM     16  C   UNL     1       7.007  17.236  17.011  0.00  0.00    +0.099 A 
ATOM     17  C   UNL     1       5.381  13.955  18.937  0.00  0.00    +0.001 A 
ATOM     18  N   UNL     1       6.517  16.204  16.316  0.00  0.00    -0.244 NA
ATOM     19  C   UNL     1       4.860  12.898  18.191  0.00  0.00    +0.000 A 
ENDBRANCH   1  14
BRANCH   6  20
ATOM     20  C   UNL     1       9.976  16.447  24.830  0.00  0.00    +0.003 A 
ATOM     21  C   UNL     1      10.187  17.610  25.587  0.00  0.00    +0.001 A 
ATOM     22  C   UNL     1      10.961  17.527  26.759  0.00  0.00    +0.015 A 
ATOM     23  C   UNL     1      11.525  16.339  27.173  0.00  0.00    +0.048 A 
ATOM     24  C   UNL     1      11.310  15.197  26.426  0.00  0.00    +0.015 A 
ATOM     25  C   UNL     1      10.511  15.254  25.285  0.00  0.00    +0.001 A 
BRANCH  23  26
ATOM     26  N   UNL     1      12.294  16.201  28.374  0.00  0.00    -0.305 N 
ATOM     27  C   UNL     1      13.354  17.166  28.699  0.00  0.00    +0.110 C 
ATOM     28  C   UNL     1      13.970  16.983  30.114  0.00  0.00    +0.110 C 
ATOM     29  N   UNL     1      14.261  15.568  30.450  0.00  0.00    -0.214 NA
ATOM     30  C   UNL     1      13.720  14.617  29.452  0.00  0.00    +0.110 C 
ATOM     31  C   UNL     1      12.270  14.946  29.132  0.00  0.00    +0.110 C 
ENDBRANCH  23  26
ENDBRANCH   6  20
TORSDOF 3
ENDMDL
MODEL 2
REMARK VINA RESULT:      -7.9      4.286      7.576
REMARK  Name = 3Q4U_LDN.pdb
REMARK  3 active torsions:
REMARK  status: ('A' for Active; 'I' for Inactive)
REMARK    1  A    between atoms: _18  and  _19
REMARK    2  A    between atoms: _20  and  _30
REMARK    3  A    between atoms: _21  and  _22
REMARK                            x       y       z     vdW  Elec       q    Type
REMARK                         _______ _______ _______ _____ _____    ______ ____
ROOT
ATOM      1  C   UNL     1      11.604  17.284  25.648  0.00  0.00    +0.057 A 
ATOM      2  C   UNL     1      12.105  17.009  26.908  0.00  0.00    +0.165 A 
ATOM      3  N   UNL     1      13.329  17.732  27.015  0.00  0.00    -0.211 N 
ATOM      4  N   UNL     1      13.528  18.335  25.949  0.00  0.00    -0.162 NA
ATOM      5  C   UNL     1      14.072  17.672  28.168  0.00  0.00    +0.104 A 
ATOM      6  C   UNL     1      13.632  16.879  29.214  0.00  0.00    +0.038 A 
ATOM      7  C   UNL     1      12.410  16.209  29.091  0.00  0.00    +0.102 A 
ATOM      8  N   UNL     1      11.678  16.234  27.934  0.00  0.00    -0.225 NA
ATOM      9  C   UNL     1      12.502  18.084  25.101  0.00  0.00    +0.124 A 
ENDROOT
BRANCH   1  14
ATOM     10  C   UNL     1       9.754  12.876  23.531  0.00  0.00    +0.002 A 
ATOM     11  C   UNL     1       8.746  13.822  23.482  0.00  0.00    +0.019 A 
ATOM     12  C   UNL     1       8.925  15.111  23.977  0.00  0.00    +0.081 A 
ATOM     13  C   UNL     1      10.172  15.469  24.540  0.00  0.00    +0.018 A 
ATOM     14  C   UNL     1      10.378  16.790  25.036  0.00  0.00    +0.008 A 
ATOM     15  C   UNL     1       9.277  17.628  25.002  0.00  0.00    +0.021 A 
ATOM     16  C   UNL     1       8.059  17.227  24.418  0.00  0.00    +0.099 A 
ATOM     17  C   UNL     1      11.176  14.510  24.551  0.00  0.00    +0.001 A 
ATOM     18  N   UNL     1       7.907  15.984  23.950  0.00  0.00    -0.244 NA
ATOM     19  C   UNL     1      10.989  13.213  24.073  0.00  0.00    +0.000 A 
ENDBRANCH   1  14
BRANCH   6  20
ATOM     20  C   UNL     1      14.385  16.885  30.405  0.00  0.00    +0.003 A 
ATOM     21  C   UNL     1      15.604  16.198  30.514  0.00  0.00    +0.001 A 
ATOM     22  C   UNL     1      16.337  16.299  31.710  0.00  0.00    +0.015 A 
ATOM     23  C   UNL     1      15.883  17.042  32.779  0.00  0.00    +0.048 A 
ATOM     24  C   UNL     1      14.683  17.719  32.665  0.00  0.00    +0.015 A 
ATOM     25  C   UNL     1      13.965  17.663  31.471  0.00  0.00    +0.001 A 
BRANCH  23  26
ATOM     26  N   UNL     1      16.609  17.198  34.004  0.00  0.00    -0.305 N 
ATOM     27  C   UNL     1      17.439  16.103  34.527  0.00  0.00    +0.110 C 
ATOM     28  C   UNL     1      18.299  16.490  35.761  0.00  0.00    +0.110 C 
ATOM     29  N   UNL     1      17.552  17.274  36.775  0.00  0.00    -0.214 NA
ATOM     30  C   UNL     1      16.212  17.691  36.307  0.00  0.00    +0.110 C 
ATOM     31  C   UNL     1      16.298  18.303  34.917  0.00  0.00    +0.110 C 
ENDBRANCH  23  26
ENDBRANCH   6  20
TORSDOF 3
ENDMDL
MODEL 3
REMARK VINA RESULT:      -7.9      1.582      2.525
REMARK  Name = 3Q4U_LDN.pdb
REMARK  3 active torsions:
REMARK  status: ('A' for Active; 'I' for Inactive)
REMARK    1  A    between atoms: _18  and  _19
REMARK    2  A    between atoms: _20  and  _30
REMARK    3  A    between atoms: _21  and  _22
REMARK                            x       y       z     vdW  Elec       q    Type
REMARK                         _______ _______ _______ _____ _____    ______ ____
ROOT
ATOM      1  C   UNL     1       5.793  15.419  21.941  0.00  0.00    +0.057 A 
ATOM      2  C   UNL     1       6.921  15.224  22.717  0.00  0.00    +0.165 A 
ATOM      3  N   UNL     1       7.121  16.439  23.438  0.00  0.00    -0.211 N 
ATOM      4  N   UNL     1       6.237  17.245  23.109  0.00  0.00    -0.162 NA
ATOM      5  C   UNL     1       8.171  16.560  24.315  0.00  0.00    +0.104 A 
ATOM      6  C   UNL     1       9.048  15.501  24.469  0.00  0.00    +0.038 A 
ATOM      7  C   UNL     1       8.805  14.311  23.773  0.00  0.00    +0.102 A 
ATOM      8  N   UNL     1       7.783  14.190  22.871  0.00  0.00    -0.225 NA
ATOM      9  C   UNL     1       5.418  16.658  22.204  0.00  0.00    +0.124 A 
ENDROOT
BRANCH   1  14
ATOM     10  C   UNL     1       5.798  14.339  16.824  0.00  0.00    +0.002 A 
ATOM     11  C   UNL     1       4.939  13.449  17.442  0.00  0.00    +0.019 A 
ATOM     12  C   UNL     1       4.720  13.473  18.817  0.00  0.00    +0.081 A 
ATOM     13  C   UNL     1       5.389  14.438  19.606  0.00  0.00    +0.018 A 
ATOM     14  C   UNL     1       5.164  14.488  21.013  0.00  0.00    +0.008 A 
ATOM     15  C   UNL     1       4.341  13.502  21.531  0.00  0.00    +0.021 A 
ATOM     16  C   UNL     1       3.688  12.571  20.699  0.00  0.00    +0.099 A 
ATOM     17  C   UNL     1       6.224  15.338  18.958  0.00  0.00    +0.001 A 
ATOM     18  N   UNL     1       3.912  12.564  19.381  0.00  0.00    -0.244 NA
ATOM     19  C   UNL     1       6.457  15.300  17.584  0.00  0.00    +0.000 A 
ENDBRANCH   1  14
BRANCH   6  20
ATOM     20  C   UNL     1      10.080  15.634  25.419  0.00  0.00    +0.003 A 
ATOM     21  C   UNL     1      10.420  16.878  25.973  0.00  0.00    +0.001 A 
ATOM     22  C   UNL     1      11.416  16.931  26.965  0.00  0.00    +0.015 A 
ATOM     23  C   UNL     1      12.073  15.797  27.396  0.00  0.00    +0.048 A 
ATOM     24  C   UNL     1      11.730  14.575  26.849  0.00  0.00    +0.015 A 
ATOM     25  C   UNL     1      10.717  14.500  25.895  0.00  0.00    +0.001 A 
BRANCH  23  26
ATOM     26  N   UNL     1      13.070  15.799  28.424  0.00  0.00    -0.305 N 
ATOM     27  C   UNL     1      13.260  14.621  29.283  0.00  0.00    +0.110 C 
ATOM     28  C   UNL     1      14.493  14.713  30.224  0.00  0.00    +0.110 C 
ATOM     29  N   UNL     1      14.624  16.029  30.895  0.00  0.00    -0.214 NA
ATOM     30  C   UNL     1      13.673  17.037  30.375  0.00  0.00    +0.110 C 
ATOM     31  C   UNL     1      13.693  17.055  28.854  0.00  0.00    +0.110 C 
ENDBRANCH  23  26
ENDBRANCH   6  20
TORSDOF 3
ENDMDL
MODEL 4
REMARK VINA RESULT:      -7.8      1.458      2.041
REMARK  Name = 3Q4U_LDN.pdb
REMARK  3 active torsions:
REMARK  status: ('A' for Active; 'I' for Inactive)
REMARK    1  A    between atoms: _18  and  _19
REMARK    2  A    between atoms: _20  and  _30
REMARK    3  A    between atoms: _21  and  _22
REMARK                            x       y       z     vdW  Elec       q    Type
REMARK                         _______ _______ _______ _____ _____    ______ ____
ROOT
ATOM      1  C   UNL     1       7.198  16.393  22.207  0.00  0.00    +0.057 A 
ATOM      2  C   UNL     1       8.289  16.182  23.031  0.00  0.00    +0.165 A 
ATOM      3  N   UNL     1       8.026  16.907  24.230  0.00  0.00    -0.211 N 
ATOM      4  N   UNL     1       6.934  17.483  24.114  0.00  0.00    -0.162 NA
ATOM      5  C   UNL     1       8.930  16.890  25.264  0.00  0.00    +0.104 A 
ATOM      6  C   UNL     1      10.111  16.184  25.115  0.00  0.00    +0.038 A 
ATOM      7  C   UNL     1      10.325  15.456  23.940  0.00  0.00    +0.102 A 
ATOM      8  N   UNL     1       9.447  15.493  22.889  0.00  0.00    -0.225 NA
ATOM      9  C   UNL     1       6.407  17.192  22.900  0.00  0.00    +0.124 A 
ENDROOT
BRANCH   1  14
ATOM     10  C   UNL     1       3.873  13.223  19.709  0.00  0.00    +0.002 A 
ATOM     11  C   UNL     1       4.781  13.699  18.779  0.00  0.00    +0.019 A 
ATOM     12  C   UNL     1       5.801  14.577  19.133  0.00  0.00    +0.081 A 
ATOM     13  C   UNL     1       5.920  14.993  20.479  0.00  0.00    +0.018 A 
ATOM     14  C   UNL     1       6.969  15.880  20.862  0.00  0.00    +0.008 A 
ATOM     15  C   UNL     1       7.772  16.348  19.836  0.00  0.00    +0.021 A 
ATOM     16  C   UNL     1       7.620  15.892  18.511  0.00  0.00    +0.099 A 
ATOM     17  C   UNL     1       5.014  14.480  21.398  0.00  0.00    +0.001 A 
ATOM     18  N   UNL     1       6.633  15.049  18.192  0.00  0.00    -0.244 NA
ATOM     19  C   UNL     1       3.981  13.615  21.038  0.00  0.00    +0.000 A 
ENDBRANCH   1  14
BRANCH   6  20
ATOM     20  C   UNL     1      10.992  16.137  26.215  0.00  0.00    +0.003 A 
ATOM     21  C   UNL     1      11.342  17.290  26.934  0.00  0.00    +0.001 A 
ATOM     22  C   UNL     1      12.173  17.163  28.061  0.00  0.00    +0.015 A 
ATOM     23  C   UNL     1      12.662  15.939  28.468  0.00  0.00    +0.048 A 
ATOM     24  C   UNL     1      12.311  14.807  27.758  0.00  0.00    +0.015 A 
ATOM     25  C   UNL     1      11.454  14.911  26.663  0.00  0.00    +0.001 A 
BRANCH  23  26
ATOM     26  N   UNL     1      13.486  15.758  29.626  0.00  0.00    -0.305 N 
ATOM     27  C   UNL     1      14.316  16.859  30.133  0.00  0.00    +0.110 C 
ATOM     28  C   UNL     1      15.009  16.561  31.491  0.00  0.00    +0.110 C 
ATOM     29  N   UNL     1      15.619  15.210  31.556  0.00  0.00    -0.214 NA
ATOM     30  C   UNL     1      15.267  14.364  30.393  0.00  0.00    +0.110 C 
ATOM     31  C   UNL     1      13.769  14.411  30.133  0.00  0.00    +0.110 C 
ENDBRANCH  23  26
ENDBRANCH   6  20
TORSDOF 3
ENDMDL
MODEL 5
REMARK VINA RESULT:      -7.6      2.282     11.986
REMARK  Name = 3Q4U_LDN.pdb
REMARK  3 active torsions:
REMARK  status: ('A' for Active; 'I' for Inactive)
REMARK    1  A    between atoms: _18  and  _19
REMARK    2  A    between atoms: _20  and  _30
REMARK    3  A    between atoms: _21  and  _22
REMARK                            x       y       z     vdW  Elec       q    Type
REMARK                         _______ _______ _______ _____ _____    ______ ____
ROOT
ATOM      1  C   UNL     1      13.548  15.282  29.843  0.00  0.00    +0.057 A 
ATOM      2  C   UNL     1      12.969  15.780  28.690  0.00  0.00    +0.165 A 
ATOM      3  N   UNL     1      12.058  14.779  28.239  0.00  0.00    -0.211 N 
ATOM      4  N   UNL     1      12.114  13.814  29.016  0.00  0.00    -0.162 NA
ATOM      5  C   UNL     1      11.311  14.981  27.104  0.00  0.00    +0.104 A 
ATOM      6  C   UNL     1      11.473  16.155  26.390  0.00  0.00    +0.038 A 
ATOM      7  C   UNL     1      12.349  17.132  26.877  0.00  0.00    +0.102 A 
ATOM      8  N   UNL     1      13.125  16.928  27.986  0.00  0.00    -0.225 NA
ATOM      9  C   UNL     1      13.007  14.087  29.997  0.00  0.00    +0.124 A 
ENDROOT
BRANCH   1  14
ATOM     10  C   UNL     1      18.394  14.348  31.569  0.00  0.00    +0.002 A 
ATOM     11  C   UNL     1      17.988  15.563  32.091  0.00  0.00    +0.019 A 
ATOM     12  C   UNL     1      16.734  16.099  31.812  0.00  0.00    +0.081 A 
ATOM     13  C   UNL     1      15.846  15.383  30.976  0.00  0.00    +0.018 A 
ATOM     14  C   UNL     1      14.551  15.909  30.693  0.00  0.00    +0.008 A 
ATOM     15  C   UNL     1      14.282  17.165  31.209  0.00  0.00    +0.021 A 
ATOM     16  C   UNL     1      15.197  17.832  32.048  0.00  0.00    +0.099 A 
ATOM     17  C   UNL     1      16.267  14.153  30.488  0.00  0.00    +0.001 A 
ATOM     18  N   UNL     1      16.396  17.301  32.303  0.00  0.00    -0.244 NA
ATOM     19  C   UNL     1      17.531  13.626  30.754  0.00  0.00    +0.000 A 
ENDBRANCH   1  14
BRANCH   6  20
ATOM     20  C   UNL     1      10.650  16.359  25.264  0.00  0.00    +0.003 A 
ATOM     21  C   UNL     1      11.114  16.138  23.958  0.00  0.00    +0.001 A 
ATOM     22  C   UNL     1      10.221  16.296  22.883  0.00  0.00    +0.015 A 
ATOM     23  C   UNL     1       8.909  16.676  23.079  0.00  0.00    +0.048 A 
ATOM     24  C   UNL     1       8.458  16.888  24.368  0.00  0.00    +0.015 A 
ATOM     25  C   UNL     1       9.319  16.694  25.447  0.00  0.00    +0.001 A 
BRANCH  23  26
ATOM     26  N   UNL     1       7.957  16.820  22.019  0.00  0.00    -0.305 N 
ATOM     27  C   UNL     1       6.841  15.874  21.883  0.00  0.00    +0.110 C 
ATOM     28  C   UNL     1       5.801  16.268  20.798  0.00  0.00    +0.110 C 
ATOM     29  N   UNL     1       6.419  16.723  19.529  0.00  0.00    -0.214 NA
ATOM     30  C   UNL     1       7.885  16.895  19.632  0.00  0.00    +0.110 C 
ATOM     31  C   UNL     1       8.243  17.695  20.877  0.00  0.00    +0.110 C 
ENDBRANCH  23  26
ENDBRANCH   6  20
TORSDOF 3
ENDMDL
MODEL 6
REMARK VINA RESULT:      -7.5      2.578     12.212
REMARK  Name = 3Q4U_LDN.pdb
REMARK  3 active torsions:
REMARK  status: ('A' for Active; 'I' for Inactive)
REMARK    1  A    between atoms: _18  and  _19
REMARK    2  A    between atoms: _20  and  _30
REMARK    3  A    between atoms: _21  and  _22
REMARK                            x       y       z     vdW  Elec       q    Type
REMARK                         _______ _______ _______ _____ _____    ______ ____
ROOT
ATOM      1  C   UNL     1      14.073  14.940  30.236  0.00  0.00    +0.057 A 
ATOM      2  C   UNL     1      13.416  15.499  29.155  0.00  0.00    +0.165 A 
ATOM      3  N   UNL     1      12.376  14.587  28.808  0.00  0.00    -0.211 N 
ATOM      4  N   UNL     1      12.430  13.613  29.574  0.00  0.00    -0.162 NA
ATOM      5  C   UNL     1      11.528  14.866  27.764  0.00  0.00    +0.104 A 
ATOM      6  C   UNL     1      11.714  16.028  27.036  0.00  0.00    +0.038 A 
ATOM      7  C   UNL     1      12.722  16.918  27.422  0.00  0.00    +0.102 A 
ATOM      8  N   UNL     1      13.595  16.635  28.438  0.00  0.00    -0.225 NA
ATOM      9  C   UNL     1      13.448  13.797  30.451  0.00  0.00    +0.124 A 
ENDROOT
BRANCH   1  14
ATOM     10  C   UNL     1      15.211  18.912  33.443  0.00  0.00    +0.002 A 
ATOM     11  C   UNL     1      16.362  18.162  33.275  0.00  0.00    +0.019 A 
ATOM     12  C   UNL     1      16.386  17.024  32.474  0.00  0.00    +0.081 A 
ATOM     13  C   UNL     1      15.205  16.622  31.807  0.00  0.00    +0.018 A 
ATOM     14  C   UNL     1      15.216  15.468  30.969  0.00  0.00    +0.008 A 
ATOM     15  C   UNL     1      16.403  14.756  30.935  0.00  0.00    +0.021 A 
ATOM     16  C   UNL     1      17.556  15.205  31.609  0.00  0.00    +0.099 A 
ATOM     17  C   UNL     1      14.072  17.407  31.969  0.00  0.00    +0.001 A 
ATOM     18  N   UNL     1      17.511  16.301  32.374  0.00  0.00    -0.244 NA
ATOM     19  C   UNL     1      14.044  18.537  32.787  0.00  0.00    +0.000 A 
ENDBRANCH   1  14
BRANCH   6  20
ATOM     20  C   UNL     1      10.793  16.315  26.008  0.00  0.00    +0.003 A 
ATOM     21  C   UNL     1      10.621  17.615  25.510  0.00  0.00    +0.001 A 
ATOM     22  C   UNL     1       9.733  17.821  24.439  0.00  0.00    +0.015 A 
ATOM     23  C   UNL     1       9.019  16.783  23.877  0.00  0.00    +0.048 A 
ATOM     24  C   UNL     1       9.197  15.504  24.370  0.00  0.00    +0.015 A 
ATOM     25  C   UNL     1      10.104  15.276  25.403  0.00  0.00    +0.001 A 
BRANCH  23  26
ATOM     26  N   UNL     1       8.128  16.940  22.767  0.00  0.00    -0.305 N 
ATOM     27  C   UNL     1       7.187  15.870  22.406  0.00  0.00    +0.110 C 
ATOM     28  C   UNL     1       6.171  16.263  21.298  0.00  0.00    +0.110 C 
ATOM     29  N   UNL     1       6.792  16.986  20.162  0.00  0.00    -0.214 NA
ATOM     30  C   UNL     1       8.202  17.356  20.416  0.00  0.00    +0.110 C 
ATOM     31  C   UNL     1       8.346  18.006  21.784  0.00  0.00    +0.110 C 
ENDBRANCH  23  26
ENDBRANCH   6  20
TORSDOF 3
ENDMDL
MODEL 7
REMARK VINA RESULT:      -7.4      2.778     10.610
REMARK  Name = 3Q4U_LDN.pdb
REMARK  3 active torsions:
REMARK  status: ('A' for Active; 'I' for Inactive)
REMARK    1  A    between atoms: _18  and  _19
REMARK    2  A    between atoms: _20  and  _30
REMARK    3  A    between atoms: _21  and  _22
REMARK                            x       y       z     vdW  Elec       q    Type
REMARK                         _______ _______ _______ _____ _____    ______ ____
ROOT
ATOM      1  C   UNL     1       8.966  15.482  26.473  0.00  0.00    +0.057 A 
ATOM      2  C   UNL     1       8.628  14.960  25.238  0.00  0.00    +0.165 A 
ATOM      3  N   UNL     1       8.029  16.027  24.506  0.00  0.00    -0.211 N 
ATOM      4  N   UNL     1       8.001  17.036  25.227  0.00  0.00    -0.162 NA
ATOM      5  C   UNL     1       7.589  15.826  23.221  0.00  0.00    +0.104 A 
ATOM      6  C   UNL     1       7.708  14.568  22.656  0.00  0.00    +0.038 A 
ATOM      7  C   UNL     1       8.332  13.551  23.387  0.00  0.00    +0.102 A 
ATOM      8  N   UNL     1       8.743  13.730  24.681  0.00  0.00    -0.225 NA
ATOM      9  C   UNL     1       8.561  16.739  26.425  0.00  0.00    +0.124 A 
ENDROOT
BRANCH   1  14
ATOM     10  C   UNL     1       7.668  12.250  30.373  0.00  0.00    +0.002 A 
ATOM     11  C   UNL     1       9.024  12.505  30.471  0.00  0.00    +0.019 A 
ATOM     12  C   UNL     1       9.682  13.334  29.567  0.00  0.00    +0.081 A 
ATOM     13  C   UNL     1       8.946  13.940  28.522  0.00  0.00    +0.018 A 
ATOM     14  C   UNL     1       9.600  14.806  27.597  0.00  0.00    +0.008 A 
ATOM     15  C   UNL     1      10.971  14.928  27.748  0.00  0.00    +0.021 A 
ATOM     16  C   UNL     1      11.656  14.313  28.814  0.00  0.00    +0.099 A 
ATOM     17  C   UNL     1       7.581  13.691  28.463  0.00  0.00    +0.001 A 
ATOM     18  N   UNL     1      11.006  13.519  29.671  0.00  0.00    -0.244 NA
ATOM     19  C   UNL     1       6.927  12.845  29.358  0.00  0.00    +0.000 A 
ENDBRANCH   1  14
BRANCH   6  20
ATOM     20  C   UNL     1       7.302  14.408  21.316  0.00  0.00    +0.003 A 
ATOM     21  C   UNL     1       7.344  15.468  20.397  0.00  0.00    +0.001 A 
ATOM     22  C   UNL     1       6.987  15.223  19.059  0.00  0.00    +0.015 A 
ATOM     23  C   UNL     1       6.586  13.975  18.632  0.00  0.00    +0.048 A 
ATOM     24  C   UNL     1       6.551  12.934  19.540  0.00  0.00    +0.015 A 
ATOM     25  C   UNL     1       6.942  13.151  20.860  0.00  0.00    +0.001 A 
BRANCH  23  26
ATOM     26  N   UNL     1       6.243  13.672  17.274  0.00  0.00    -0.305 N 
ATOM     27  C   UNL     1       5.426  14.604  16.483  0.00  0.00    +0.110 C 
ATOM     28  C   UNL     1       5.294  14.219  14.984  0.00  0.00    +0.110 C 
ATOM     29  N   UNL     1       5.017  12.777  14.770  0.00  0.00    -0.214 NA
ATOM     30  C   UNL     1       5.125  11.980  16.012  0.00  0.00    +0.110 C 
ATOM     31  C   UNL     1       6.414  12.313  16.750  0.00  0.00    +0.110 C 
ENDBRANCH  23  26
ENDBRANCH   6  20
TORSDOF 3
ENDMDL
MODEL 8
REMARK VINA RESULT:      -7.3      1.771     10.744
REMARK  Name = 3Q4U_LDN.pdb
REMARK  3 active torsions:
REMARK  status: ('A' for Active; 'I' for Inactive)
REMARK    1  A    between atoms: _18  and  _19
REMARK    2  A    between atoms: _20  and  _30
REMARK    3  A    between atoms: _21  and  _22
REMARK                            x       y       z     vdW  Elec       q    Type
REMARK                         _______ _______ _______ _____ _____    ______ ____
ROOT
ATOM      1  C   UNL     1       8.948  15.899  26.042  0.00  0.00    +0.057 A 
ATOM      2  C   UNL     1       8.742  15.601  24.708  0.00  0.00    +0.165 A 
ATOM      3  N   UNL     1       7.889  16.624  24.199  0.00  0.00    -0.211 N 
ATOM      4  N   UNL     1       7.616  17.407  25.122  0.00  0.00    -0.162 NA
ATOM      5  C   UNL     1       7.503  16.615  22.881  0.00  0.00    +0.104 A 
ATOM      6  C   UNL     1       7.929  15.585  22.061  0.00  0.00    +0.038 A 
ATOM      7  C   UNL     1       8.793  14.615  22.581  0.00  0.00    +0.102 A 
ATOM      8  N   UNL     1       9.156  14.594  23.901  0.00  0.00    -0.225 NA
ATOM      9  C   UNL     1       8.241  16.995  26.251  0.00  0.00    +0.124 A 
ENDROOT
BRANCH   1  14
ATOM     10  C   UNL     1      13.339  16.507  28.817  0.00  0.00    +0.002 A 
ATOM     11  C   UNL     1      12.799  15.276  29.146  0.00  0.00    +0.019 A 
ATOM     12  C   UNL     1      11.615  14.817  28.575  0.00  0.00    +0.081 A 
ATOM     13  C   UNL     1      10.946  15.626  27.628  0.00  0.00    +0.018 A 
ATOM     14  C   UNL     1       9.741  15.165  27.020  0.00  0.00    +0.008 A 
ATOM     15  C   UNL     1       9.256  13.953  27.480  0.00  0.00    +0.021 A 
ATOM     16  C   UNL     1       9.969  13.178  28.417  0.00  0.00    +0.099 A 
ATOM     17  C   UNL     1      11.522  16.845  27.294  0.00  0.00    +0.001 A 
ATOM     18  N   UNL     1      11.103  13.637  28.954  0.00  0.00    -0.244 NA
ATOM     19  C   UNL     1      12.698  17.311  27.881  0.00  0.00    +0.000 A 
ENDBRANCH   1  14
BRANCH   6  20
ATOM     20  C   UNL     1       7.566  15.635  20.700  0.00  0.00    +0.003 A 
ATOM     21  C   UNL     1       6.799  14.623  20.101  0.00  0.00    +0.001 A 
ATOM     22  C   UNL     1       6.414  14.768  18.756  0.00  0.00    +0.015 A 
ATOM     23  C   UNL     1       6.783  15.868  18.010  0.00  0.00    +0.048 A 
ATOM     24  C   UNL     1       7.535  16.862  18.607  0.00  0.00    +0.015 A 
ATOM     25  C   UNL     1       7.888  16.754  19.951  0.00  0.00    +0.001 A 
BRANCH  23  26
ATOM     26  N   UNL     1       6.390  16.072  16.647  0.00  0.00    -0.305 N 
ATOM     27  C   UNL     1       6.038  14.930  15.792  0.00  0.00    +0.110 C 
ATOM     28  C   UNL     1       5.464  15.328  14.404  0.00  0.00    +0.110 C 
ATOM     29  N   UNL     1       6.223  16.418  13.744  0.00  0.00    -0.214 NA
ATOM     30  C   UNL     1       7.239  17.029  14.631  0.00  0.00    +0.110 C 
ATOM     31  C   UNL     1       6.635  17.358  15.988  0.00  0.00    +0.110 C 
ENDBRANCH  23  26
ENDBRANCH   6  20
TORSDOF 3
ENDMDL
MODEL 9
REMARK VINA RESULT:      -7.2      4.639      6.183
REMARK  Name = 3Q4U_LDN.pdb
REMARK  3 active torsions:
REMARK  status: ('A' for Active; 'I' for Inactive)
REMARK    1  A    between atoms: _18  and  _19
REMARK    2  A    between atoms: _20  and  _30
REMARK    3  A    between atoms: _21  and  _22
REMARK                            x       y       z     vdW  Elec       q    Type
REMARK                         _______ _______ _______ _____ _____    ______ ____
ROOT
ATOM      1  C   UNL     1       9.425  14.405  23.756  0.00  0.00    +0.057 A 
ATOM      2  C   UNL     1       9.068  14.374  25.092  0.00  0.00    +0.165 A 
ATOM      3  N   UNL     1       9.389  13.064  25.557  0.00  0.00    -0.211 N 
ATOM      4  N   UNL     1       9.854  12.410  24.611  0.00  0.00    -0.162 NA
ATOM      5  C   UNL     1       9.157  12.716  26.865  0.00  0.00    +0.104 A 
ATOM      6  C   UNL     1       8.583  13.643  27.718  0.00  0.00    +0.038 A 
ATOM      7  C   UNL     1       8.311  14.929  27.241  0.00  0.00    +0.102 A 
ATOM      8  N   UNL     1       8.505  15.277  25.931  0.00  0.00    -0.225 NA
ATOM      9  C   UNL     1       9.889  13.194  23.507  0.00  0.00    +0.124 A 
ENDROOT
BRANCH   1  14
ATOM     10  C   UNL     1       6.144  16.064  20.038  0.00  0.00    +0.002 A 
ATOM     11  C   UNL     1       7.178  16.977  20.125  0.00  0.00    +0.019 A 
ATOM     12  C   UNL     1       8.222  16.821  21.033  0.00  0.00    +0.081 A 
ATOM     13  C   UNL     1       8.230  15.695  21.889  0.00  0.00    +0.018 A 
ATOM     14  C   UNL     1       9.300  15.510  22.814  0.00  0.00    +0.008 A 
ATOM     15  C   UNL     1      10.240  16.525  22.863  0.00  0.00    +0.021 A 
ATOM     16  C   UNL     1      10.193  17.621  21.979  0.00  0.00    +0.099 A 
ATOM     17  C   UNL     1       7.195  14.778  21.763  0.00  0.00    +0.001 A 
ATOM     18  N   UNL     1       9.183  17.753  21.115  0.00  0.00    -0.244 NA
ATOM     19  C   UNL     1       6.141  14.946  20.865  0.00  0.00    +0.000 A 
ENDBRANCH   1  14
BRANCH   6  20
ATOM     20  C   UNL     1       8.412  13.276  29.069  0.00  0.00    +0.003 A 
ATOM     21  C   UNL     1       9.502  13.145  29.943  0.00  0.00    +0.001 A 
ATOM     22  C   UNL     1       9.255  12.842  31.295  0.00  0.00    +0.015 A 
ATOM     23  C   UNL     1       7.976  12.657  31.776  0.00  0.00    +0.048 A 
ATOM     24  C   UNL     1       6.908  12.792  30.910  0.00  0.00    +0.015 A 
ATOM     25  C   UNL     1       7.132  13.133  29.577  0.00  0.00    +0.001 A 
BRANCH  23  26
ATOM     26  N   UNL     1       7.676  12.377  33.149  0.00  0.00    -0.305 N 
ATOM     27  C   UNL     1       6.294  12.450  33.642  0.00  0.00    +0.110 C 
ATOM     28  C   UNL     1       6.111  11.947  35.100  0.00  0.00    +0.110 C 
ATOM     29  N   UNL     1       7.154  12.445  36.029  0.00  0.00    -0.214 NA
ATOM     30  C   UNL     1       8.256  13.149  35.334  0.00  0.00    +0.110 C 
ATOM     31  C   UNL     1       8.748  12.330  34.149  0.00  0.00    +0.110 C 
ENDBRANCH  23  26
ENDBRANCH   6  20
TORSDOF 3
ENDMDL
