MODEL 1
REMARK VINA RESULT:      -5.7      0.000      0.000
REMARK  Name = 6I1S_E26.pdb
REMARK  8 active torsions:
REMARK  status: ('A' for Active; 'I' for Inactive)
REMARK    1  A    between atoms: _1  and  _2
REMARK    2  A    between atoms: _2  and  _3
REMARK    3  A    between atoms: _3  and  _4
REMARK    4  A    between atoms: _10  and  _28
REMARK    5  A    between atoms: _11  and  _27
REMARK    6  A    between atoms: _15  and  _16
REMARK    7  A    between atoms: _17  and  _18
REMARK    8  A    between atoms: _22  and  _24
REMARK                            x       y       z     vdW  Elec       q    Type
REMARK                         _______ _______ _______ _____ _____    ______ ____
ROOT
ATOM      1  C   UNL     1      10.589  31.413  32.686  0.00  0.00    +0.031 A 
ATOM      2  C   UNL     1       9.400  31.238  33.384  0.00  0.00    +0.069 A 
ATOM      3  C   UNL     1       8.405  32.197  33.258  0.00  0.00    +0.133 A 
ATOM      4  C   UNL     1       8.587  33.332  32.454  0.00  0.00    +0.107 A 
ATOM      5  C   UNL     1       7.432  34.335  32.393  0.00  0.00    +0.344 C 
ATOM      6  O   UNL     1       6.399  34.140  32.951  0.00  0.00    -0.245 OA
ATOM      7  O   UNL     1       7.638  35.530  31.691  0.00  0.00    -0.457 OA
ATOM      8  C   UNL     1       6.568  36.463  31.663  0.00  0.00    +0.180 C 
ATOM      9  C   UNL     1       6.567  37.363  32.868  0.00  0.00    +0.052 C 
ATOM     10  C   UNL     1       6.784  37.234  30.351  0.00  0.00    +0.049 C 
ATOM     11  C   UNL     1       5.703  38.292  30.149  0.00  0.00    +0.015 C 
ATOM     12  C   UNL     1       6.774  36.236  29.183  0.00  0.00    -0.017 C 
ATOM     13  C   UNL     1       7.601  36.278  28.137  0.00  0.00    +0.045 C 
ATOM     14  C   UNL     1       8.759  37.268  27.938  0.00  0.00    +0.187 C 
ATOM     15  O   UNL     1       8.893  38.282  28.546  0.00  0.00    -0.290 OA
ATOM     16  C   UNL     1       9.872  36.768  26.978  0.00  0.00    +0.213 C 
ATOM     17  C   UNL     1      10.453  35.481  27.602  0.00  0.00    +0.154 C 
ATOM     18  C   UNL     1      11.284  35.710  28.872  0.00  0.00    +0.061 C 
ATOM     19  C   UNL     1      11.004  34.553  29.846  0.00  0.00    -0.024 C 
ATOM     20  C   UNL     1      10.100  34.679  30.822  0.00  0.00    +0.005 C 
ATOM     21  C   UNL     1       9.802  33.496  31.754  0.00  0.00    -0.006 A 
ATOM     22  C   UNL     1      10.778  32.528  31.880  0.00  0.00    +0.032 A 
ENDROOT
BRANCH   1  23
ATOM     23  N   UNL     1      11.647  30.432  32.788  0.00  0.00    -0.344 N 
ATOM     24  H   UNL     1      11.484  29.593  32.631  0.00  0.00    +0.146 HD
BRANCH  23  26
ATOM     25  C   UNL     1      12.967  31.204  34.651  0.00  0.00    +0.024 C 
ATOM     26  C   UNL     1      12.983  30.863  33.156  0.00  0.00    +0.098 C 
ENDBRANCH  23  26
ENDBRANCH   1  23
BRANCH   3  27
ATOM     27  O   UNL     1       7.202  32.043  33.952  0.00  0.00    -0.506 OA
ATOM     28  H   UNL     1       7.054  32.737  34.420  0.00  0.00    +0.292 HD
ENDBRANCH   3  27
BRANCH  16  29
ATOM     29  O   UNL     1      10.827  37.742  26.804  0.00  0.00    -0.381 OA
ATOM     30  H   UNL     1      10.546  38.477  27.125  0.00  0.00    +0.210 HD
ENDBRANCH  16  29
BRANCH  17  31
ATOM     31  O   UNL     1      11.265  34.825  26.672  0.00  0.00    -0.388 OA
ATOM     32  H   UNL     1      10.776  34.431  26.098  0.00  0.00    +0.210 HD
ENDBRANCH  17  31
TORSDOF 5
ENDMDL
MODEL 2
REMARK VINA RESULT:      -5.6      3.122      6.845
REMARK  Name = 6I1S_E26.pdb
REMARK  8 active torsions:
REMARK  status: ('A' for Active; 'I' for Inactive)
REMARK    1  A    between atoms: _1  and  _2
REMARK    2  A    between atoms: _2  and  _3
REMARK    3  A    between atoms: _3  and  _4
REMARK    4  A    between atoms: _10  and  _28
REMARK    5  A    between atoms: _11  and  _27
REMARK    6  A    between atoms: _15  and  _16
REMARK    7  A    between atoms: _17  and  _18
REMARK    8  A    between atoms: _22  and  _24
REMARK                            x       y       z     vdW  Elec       q    Type
REMARK                         _______ _______ _______ _____ _____    ______ ____
ROOT
ATOM      1  C   UNL     1       7.553  35.861  29.057  0.00  0.00    +0.031 A 
ATOM      2  C   UNL     1       6.525  36.499  29.742  0.00  0.00    +0.069 A 
ATOM      3  C   UNL     1       6.191  36.052  31.012  0.00  0.00    +0.133 A 
ATOM      4  C   UNL     1       6.862  34.970  31.600  0.00  0.00    +0.107 A 
ATOM      5  C   UNL     1       6.409  34.547  33.000  0.00  0.00    +0.344 C 
ATOM      6  O   UNL     1       5.566  35.141  33.596  0.00  0.00    -0.245 OA
ATOM      7  O   UNL     1       6.985  33.398  33.557  0.00  0.00    -0.457 OA
ATOM      8  C   UNL     1       6.538  33.003  34.846  0.00  0.00    +0.180 C 
ATOM      9  C   UNL     1       5.300  32.150  34.780  0.00  0.00    +0.052 C 
ATOM     10  C   UNL     1       7.740  32.252  35.440  0.00  0.00    +0.049 C 
ATOM     11  C   UNL     1       7.435  31.753  36.850  0.00  0.00    +0.015 C 
ATOM     12  C   UNL     1       8.951  33.196  35.462  0.00  0.00    -0.017 C 
ATOM     13  C   UNL     1      10.200  32.842  35.153  0.00  0.00    +0.045 C 
ATOM     14  C   UNL     1      10.651  31.464  34.645  0.00  0.00    +0.187 C 
ATOM     15  O   UNL     1      10.002  30.469  34.724  0.00  0.00    -0.290 OA
ATOM     16  C   UNL     1      11.982  31.479  33.847  0.00  0.00    +0.213 C 
ATOM     17  C   UNL     1      11.753  32.383  32.617  0.00  0.00    +0.154 C 
ATOM     18  C   UNL     1      10.816  31.788  31.556  0.00  0.00    +0.061 C 
ATOM     19  C   UNL     1       9.956  32.926  30.980  0.00  0.00    -0.024 C 
ATOM     20  C   UNL     1       8.726  33.162  31.447  0.00  0.00    +0.005 C 
ATOM     21  C   UNL     1       7.902  34.331  30.891  0.00  0.00    -0.006 A 
ATOM     22  C   UNL     1       8.231  34.796  29.633  0.00  0.00    +0.032 A 
ENDROOT
BRANCH   1  23
ATOM     23  N   UNL     1       7.933  36.305  27.733  0.00  0.00    -0.344 N 
ATOM     24  H   UNL     1       8.601  35.933  27.321  0.00  0.00    +0.146 HD
BRANCH  23  26
ATOM     25  C   UNL     1       7.558  37.390  25.614  0.00  0.00    +0.024 C 
ATOM     26  C   UNL     1       7.184  37.376  27.101  0.00  0.00    +0.098 C 
ENDBRANCH  23  26
ENDBRANCH   1  23
BRANCH   3  27
ATOM     27  O   UNL     1       5.159  36.675  31.717  0.00  0.00    -0.506 OA
ATOM     28  H   UNL     1       4.719  36.092  32.150  0.00  0.00    +0.292 HD
ENDBRANCH   3  27
BRANCH  16  29
ATOM     29  O   UNL     1      12.344  30.199  33.495  0.00  0.00    -0.381 OA
ATOM     30  H   UNL     1      13.168  30.183  33.288  0.00  0.00    +0.210 HD
ENDBRANCH  16  29
BRANCH  17  31
ATOM     31  O   UNL     1      12.975  32.665  31.998  0.00  0.00    -0.388 OA
ATOM     32  H   UNL     1      12.980  32.329  31.217  0.00  0.00    +0.210 HD
ENDBRANCH  17  31
TORSDOF 5
ENDMDL
MODEL 3
REMARK VINA RESULT:      -5.5      3.684      7.653
REMARK  Name = 6I1S_E26.pdb
REMARK  8 active torsions:
REMARK  status: ('A' for Active; 'I' for Inactive)
REMARK    1  A    between atoms: _1  and  _2
REMARK    2  A    between atoms: _2  and  _3
REMARK    3  A    between atoms: _3  and  _4
REMARK    4  A    between atoms: _10  and  _28
REMARK    5  A    between atoms: _11  and  _27
REMARK    6  A    between atoms: _15  and  _16
REMARK    7  A    between atoms: _17  and  _18
REMARK    8  A    between atoms: _22  and  _24
REMARK                            x       y       z     vdW  Elec       q    Type
REMARK                         _______ _______ _______ _____ _____    ______ ____
ROOT
ATOM      1  C   UNL     1       7.383  36.648  27.897  0.00  0.00    +0.031 A 
ATOM      2  C   UNL     1       8.551  35.915  28.076  0.00  0.00    +0.069 A 
ATOM      3  C   UNL     1       8.689  35.152  29.226  0.00  0.00    +0.133 A 
ATOM      4  C   UNL     1       7.682  35.121  30.203  0.00  0.00    +0.107 A 
ATOM      5  C   UNL     1       7.939  34.256  31.440  0.00  0.00    +0.344 C 
ATOM      6  O   UNL     1       8.919  33.589  31.551  0.00  0.00    -0.245 OA
ATOM      7  O   UNL     1       7.000  34.302  32.479  0.00  0.00    -0.457 OA
ATOM      8  C   UNL     1       7.261  33.515  33.631  0.00  0.00    +0.180 C 
ATOM      9  C   UNL     1       8.144  34.230  34.618  0.00  0.00    +0.052 C 
ATOM     10  C   UNL     1       5.865  33.214  34.199  0.00  0.00    +0.049 C 
ATOM     11  C   UNL     1       5.956  32.357  35.457  0.00  0.00    +0.015 C 
ATOM     12  C   UNL     1       5.039  32.493  33.123  0.00  0.00    -0.017 C 
ATOM     13  C   UNL     1       3.750  32.726  32.867  0.00  0.00    +0.045 C 
ATOM     14  C   UNL     1       2.876  33.800  33.530  0.00  0.00    +0.187 C 
ATOM     15  O   UNL     1       3.153  34.370  34.538  0.00  0.00    -0.290 OA
ATOM     16  C   UNL     1       1.643  34.231  32.691  0.00  0.00    +0.213 C 
ATOM     17  C   UNL     1       2.188  34.816  31.370  0.00  0.00    +0.154 C 
ATOM     18  C   UNL     1       2.894  36.171  31.517  0.00  0.00    +0.061 C 
ATOM     19  C   UNL     1       4.097  36.194  30.559  0.00  0.00    -0.024 C 
ATOM     20  C   UNL     1       5.324  35.889  30.989  0.00  0.00    +0.005 C 
ATOM     21  C   UNL     1       6.504  35.872  30.006  0.00  0.00    -0.006 A 
ATOM     22  C   UNL     1       6.376  36.618  28.851  0.00  0.00    +0.032 A 
ENDROOT
BRANCH   1  23
ATOM     23  N   UNL     1       7.201  37.451  26.707  0.00  0.00    -0.344 N 
ATOM     24  H   UNL     1       6.541  38.013  26.653  0.00  0.00    +0.146 HD
BRANCH  23  26
ATOM     25  C   UNL     1       7.387  37.663  24.313  0.00  0.00    +0.024 C 
ATOM     26  C   UNL     1       8.135  37.308  25.604  0.00  0.00    +0.098 C 
ENDBRANCH  23  26
ENDBRANCH   1  23
BRANCH   3  27
ATOM     27  O   UNL     1       9.855  34.409  29.430  0.00  0.00    -0.506 OA
ATOM     28  H   UNL     1       9.653  33.640  29.727  0.00  0.00    +0.292 HD
ENDBRANCH   3  27
BRANCH  16  29
ATOM     29  O   UNL     1       0.882  35.139  33.389  0.00  0.00    -0.381 OA
ATOM     30  H   UNL     1       0.332  35.515  32.862  0.00  0.00    +0.210 HD
ENDBRANCH  16  29
BRANCH  17  31
ATOM     31  O   UNL     1       1.144  34.975  30.453  0.00  0.00    -0.388 OA
ATOM     32  H   UNL     1       1.228  35.722  30.055  0.00  0.00    +0.210 HD
ENDBRANCH  17  31
TORSDOF 5
ENDMDL
MODEL 4
REMARK VINA RESULT:      -5.5      3.331      5.491
REMARK  Name = 6I1S_E26.pdb
REMARK  8 active torsions:
REMARK  status: ('A' for Active; 'I' for Inactive)
REMARK    1  A    between atoms: _1  and  _2
REMARK    2  A    between atoms: _2  and  _3
REMARK    3  A    between atoms: _3  and  _4
REMARK    4  A    between atoms: _10  and  _28
REMARK    5  A    between atoms: _11  and  _27
REMARK    6  A    between atoms: _15  and  _16
REMARK    7  A    between atoms: _17  and  _18
REMARK    8  A    between atoms: _22  and  _24
REMARK                            x       y       z     vdW  Elec       q    Type
REMARK                         _______ _______ _______ _____ _____    ______ ____
ROOT
ATOM      1  C   UNL     1       4.902  31.778  33.704  0.00  0.00    +0.031 A 
ATOM      2  C   UNL     1       4.176  32.895  33.304  0.00  0.00    +0.069 A 
ATOM      3  C   UNL     1       4.865  34.018  32.871  0.00  0.00    +0.133 A 
ATOM      4  C   UNL     1       6.267  34.045  32.844  0.00  0.00    +0.107 A 
ATOM      5  C   UNL     1       6.930  35.337  32.360  0.00  0.00    +0.344 C 
ATOM      6  O   UNL     1       6.293  36.263  31.966  0.00  0.00    -0.245 OA
ATOM      7  O   UNL     1       8.326  35.427  32.436  0.00  0.00    -0.457 OA
ATOM      8  C   UNL     1       8.927  36.640  32.007  0.00  0.00    +0.180 C 
ATOM      9  C   UNL     1       8.967  37.671  33.102  0.00  0.00    +0.052 C 
ATOM     10  C   UNL     1      10.330  36.216  31.546  0.00  0.00    +0.049 C 
ATOM     11  C   UNL     1      11.129  37.412  31.039  0.00  0.00    +0.015 C 
ATOM     12  C   UNL     1      10.189  35.163  30.437  0.00  0.00    -0.017 C 
ATOM     13  C   UNL     1      10.949  34.072  30.319  0.00  0.00    +0.045 C 
ATOM     14  C   UNL     1      12.042  33.620  31.298  0.00  0.00    +0.187 C 
ATOM     15  O   UNL     1      12.535  34.316  32.128  0.00  0.00    -0.290 OA
ATOM     16  C   UNL     1      12.360  32.102  31.248  0.00  0.00    +0.213 C 
ATOM     17  C   UNL     1      11.058  31.362  31.621  0.00  0.00    +0.154 C 
ATOM     18  C   UNL     1      10.650  31.497  33.094  0.00  0.00    +0.061 C 
ATOM     19  C   UNL     1       9.117  31.614  33.161  0.00  0.00    -0.024 C 
ATOM     20  C   UNL     1       8.521  32.807  33.237  0.00  0.00    +0.005 C 
ATOM     21  C   UNL     1       6.989  32.904  33.255  0.00  0.00    -0.006 A 
ATOM     22  C   UNL     1       6.290  31.789  33.672  0.00  0.00    +0.032 A 
ENDROOT
BRANCH   1  23
ATOM     23  N   UNL     1       4.217  30.586  34.156  0.00  0.00    -0.344 N 
ATOM     24  H   UNL     1       4.244  30.356  34.993  0.00  0.00    +0.146 HD
BRANCH  23  26
ATOM     25  C   UNL     1       2.759  28.676  33.972  0.00  0.00    +0.024 C 
ATOM     26  C   UNL     1       3.486  29.780  33.195  0.00  0.00    +0.098 C 
ENDBRANCH  23  26
ENDBRANCH   1  23
BRANCH   3  27
ATOM     27  O   UNL     1       4.157  35.153  32.467  0.00  0.00    -0.506 OA
ATOM     28  H   UNL     1       3.337  34.954  32.364  0.00  0.00    +0.292 HD
ENDBRANCH   3  27
BRANCH  16  29
ATOM     29  O   UNL     1      13.395  31.801  32.102  0.00  0.00    -0.381 OA
ATOM     30  H   UNL     1      13.818  31.125  31.810  0.00  0.00    +0.210 HD
ENDBRANCH  16  29
BRANCH  17  31
ATOM     31  O   UNL     1      11.186  29.999  31.336  0.00  0.00    -0.388 OA
ATOM     32  H   UNL     1      10.587  29.770  30.777  0.00  0.00    +0.210 HD
ENDBRANCH  17  31
TORSDOF 5
ENDMDL
MODEL 5
REMARK VINA RESULT:      -5.4      2.159      5.457
REMARK  Name = 6I1S_E26.pdb
REMARK  8 active torsions:
REMARK  status: ('A' for Active; 'I' for Inactive)
REMARK    1  A    between atoms: _1  and  _2
REMARK    2  A    between atoms: _2  and  _3
REMARK    3  A    between atoms: _3  and  _4
REMARK    4  A    between atoms: _10  and  _28
REMARK    5  A    between atoms: _11  and  _27
REMARK    6  A    between atoms: _15  and  _16
REMARK    7  A    between atoms: _17  and  _18
REMARK    8  A    between atoms: _22  and  _24
REMARK                            x       y       z     vdW  Elec       q    Type
REMARK                         _______ _______ _______ _____ _____    ______ ____
ROOT
ATOM      1  C   UNL     1      11.330  31.354  33.354  0.00  0.00    +0.031 A 
ATOM      2  C   UNL     1      12.152  32.242  32.670  0.00  0.00    +0.069 A 
ATOM      3  C   UNL     1      11.569  33.289  31.971  0.00  0.00    +0.133 A 
ATOM      4  C   UNL     1      10.176  33.452  31.936  0.00  0.00    +0.107 A 
ATOM      5  C   UNL     1       9.633  34.632  31.126  0.00  0.00    +0.344 C 
ATOM      6  O   UNL     1      10.353  35.416  30.595  0.00  0.00    -0.245 OA
ATOM      7  O   UNL     1       8.244  34.744  30.982  0.00  0.00    -0.457 OA
ATOM      8  C   UNL     1       7.753  35.829  30.208  0.00  0.00    +0.180 C 
ATOM      9  C   UNL     1       7.713  35.505  28.739  0.00  0.00    +0.052 C 
ATOM     10  C   UNL     1       6.356  36.098  30.790  0.00  0.00    +0.049 C 
ATOM     11  C   UNL     1       5.673  37.256  30.070  0.00  0.00    +0.015 C 
ATOM     12  C   UNL     1       6.497  36.412  32.287  0.00  0.00    -0.017 C 
ATOM     13  C   UNL     1       5.675  35.969  33.241  0.00  0.00    +0.045 C 
ATOM     14  C   UNL     1       4.494  35.006  33.042  0.00  0.00    +0.187 C 
ATOM     15  O   UNL     1       3.997  34.755  31.990  0.00  0.00    -0.290 OA
ATOM     16  C   UNL     1       4.079  34.229  34.319  0.00  0.00    +0.213 C 
ATOM     17  C   UNL     1       5.303  33.391  34.748  0.00  0.00    +0.154 C 
ATOM     18  C   UNL     1       5.626  32.215  33.816  0.00  0.00    +0.061 C 
ATOM     19  C   UNL     1       7.156  32.088  33.712  0.00  0.00    -0.024 C 
ATOM     20  C   UNL     1       7.824  32.638  32.695  0.00  0.00    +0.005 C 
ATOM     21  C   UNL     1       9.355  32.540  32.634  0.00  0.00    -0.006 A 
ATOM     22  C   UNL     1       9.951  31.511  33.336  0.00  0.00    +0.032 A 
ENDROOT
BRANCH   1  23
ATOM     23  N   UNL     1      11.904  30.255  34.099  0.00  0.00    -0.344 N 
ATOM     24  H   UNL     1      12.308  29.607  33.685  0.00  0.00    +0.146 HD
BRANCH  23  26
ATOM     25  C   UNL     1      13.168  30.630  36.117  0.00  0.00    +0.024 C 
ATOM     26  C   UNL     1      11.797  30.246  35.547  0.00  0.00    +0.098 C 
ENDBRANCH  23  26
ENDBRANCH   1  23
BRANCH   3  27
ATOM     27  O   UNL     1      12.375  34.192  31.274  0.00  0.00    -0.506 OA
ATOM     28  H   UNL     1      13.193  33.998  31.400  0.00  0.00    +0.292 HD
ENDBRANCH   3  27
BRANCH  16  29
ATOM     29  O   UNL     1       2.975  33.449  34.067  0.00  0.00    -0.381 OA
ATOM     30  H   UNL     1       2.273  33.927  34.110  0.00  0.00    +0.210 HD
ENDBRANCH  16  29
BRANCH  17  31
ATOM     31  O   UNL     1       5.104  32.877  36.032  0.00  0.00    -0.388 OA
ATOM     32  H   UNL     1       4.389  32.417  36.045  0.00  0.00    +0.210 HD
ENDBRANCH  17  31
TORSDOF 5
ENDMDL
MODEL 6
REMARK VINA RESULT:      -5.4      2.991      7.045
REMARK  Name = 6I1S_E26.pdb
REMARK  8 active torsions:
REMARK  status: ('A' for Active; 'I' for Inactive)
REMARK    1  A    between atoms: _1  and  _2
REMARK    2  A    between atoms: _2  and  _3
REMARK    3  A    between atoms: _3  and  _4
REMARK    4  A    between atoms: _10  and  _28
REMARK    5  A    between atoms: _11  and  _27
REMARK    6  A    between atoms: _15  and  _16
REMARK    7  A    between atoms: _17  and  _18
REMARK    8  A    between atoms: _22  and  _24
REMARK                            x       y       z     vdW  Elec       q    Type
REMARK                         _______ _______ _______ _____ _____    ______ ____
ROOT
ATOM      1  C   UNL     1      11.241  35.335  27.600  0.00  0.00    +0.031 A 
ATOM      2  C   UNL     1      11.587  34.051  27.194  0.00  0.00    +0.069 A 
ATOM      3  C   UNL     1      11.627  33.040  28.142  0.00  0.00    +0.133 A 
ATOM      4  C   UNL     1      11.339  33.296  29.491  0.00  0.00    +0.107 A 
ATOM      5  C   UNL     1      11.424  32.112  30.458  0.00  0.00    +0.344 C 
ATOM      6  O   UNL     1      11.665  31.008  30.084  0.00  0.00    -0.245 OA
ATOM      7  O   UNL     1      11.254  32.369  31.825  0.00  0.00    -0.457 OA
ATOM      8  C   UNL     1      11.360  31.267  32.714  0.00  0.00    +0.180 C 
ATOM      9  C   UNL     1      12.785  30.993  33.111  0.00  0.00    +0.052 C 
ATOM     10  C   UNL     1      10.483  31.671  33.910  0.00  0.00    +0.049 C 
ATOM     11  C   UNL     1      10.474  30.582  34.979  0.00  0.00    +0.015 C 
ATOM     12  C   UNL     1       9.055  31.934  33.409  0.00  0.00    -0.017 C 
ATOM     13  C   UNL     1       8.273  32.934  33.823  0.00  0.00    +0.045 C 
ATOM     14  C   UNL     1       8.671  34.046  34.805  0.00  0.00    +0.187 C 
ATOM     15  O   UNL     1       9.618  34.006  35.525  0.00  0.00    -0.290 OA
ATOM     16  C   UNL     1       7.827  35.343  34.680  0.00  0.00    +0.213 C 
ATOM     17  C   UNL     1       8.043  35.878  33.248  0.00  0.00    +0.154 C 
ATOM     18  C   UNL     1       9.444  36.449  32.987  0.00  0.00    +0.061 C 
ATOM     19  C   UNL     1       9.862  36.068  31.557  0.00  0.00    -0.024 C 
ATOM     20  C   UNL     1      10.625  34.996  31.326  0.00  0.00    +0.005 C 
ATOM     21  C   UNL     1      10.991  34.605  29.888  0.00  0.00    -0.006 A 
ATOM     22  C   UNL     1      10.943  35.599  28.931  0.00  0.00    +0.032 A 
ENDROOT
BRANCH   1  23
ATOM     23  N   UNL     1      11.182  36.414  26.638  0.00  0.00    -0.344 N 
ATOM     24  H   UNL     1      11.767  36.464  25.999  0.00  0.00    +0.146 HD
BRANCH  23  26
ATOM     25  C   UNL     1       8.799  36.722  26.448  0.00  0.00    +0.024 C 
ATOM     26  C   UNL     1      10.133  37.412  26.754  0.00  0.00    +0.098 C 
ENDBRANCH  23  26
ENDBRANCH   1  23
BRANCH   3  27
ATOM     27  O   UNL     1      11.975  31.742  27.757  0.00  0.00    -0.506 OA
ATOM     28  H   UNL     1      12.371  31.766  27.006  0.00  0.00    +0.292 HD
ENDBRANCH   3  27
BRANCH  16  29
ATOM     29  O   UNL     1       8.203  36.253  35.640  0.00  0.00    -0.381 OA
ATOM     30  H   UNL     1       8.725  35.880  36.197  0.00  0.00    +0.210 HD
ENDBRANCH  16  29
BRANCH  17  31
ATOM     31  O   UNL     1       7.113  36.884  32.969  0.00  0.00    -0.388 OA
ATOM     32  H   UNL     1       6.403  36.534  32.657  0.00  0.00    +0.210 HD
ENDBRANCH  17  31
TORSDOF 5
ENDMDL
MODEL 7
REMARK VINA RESULT:      -5.3      6.632     10.121
REMARK  Name = 6I1S_E26.pdb
REMARK  8 active torsions:
REMARK  status: ('A' for Active; 'I' for Inactive)
REMARK    1  A    between atoms: _1  and  _2
REMARK    2  A    between atoms: _2  and  _3
REMARK    3  A    between atoms: _3  and  _4
REMARK    4  A    between atoms: _10  and  _28
REMARK    5  A    between atoms: _11  and  _27
REMARK    6  A    between atoms: _15  and  _16
REMARK    7  A    between atoms: _17  and  _18
REMARK    8  A    between atoms: _22  and  _24
REMARK                            x       y       z     vdW  Elec       q    Type
REMARK                         _______ _______ _______ _____ _____    ______ ____
ROOT
ATOM      1  C   UNL     1       3.818  42.425  29.401  0.00  0.00    +0.031 A 
ATOM      2  C   UNL     1       3.060  43.195  28.526  0.00  0.00    +0.069 A 
ATOM      3  C   UNL     1       3.379  43.181  27.176  0.00  0.00    +0.133 A 
ATOM      4  C   UNL     1       4.451  42.418  26.691  0.00  0.00    +0.107 A 
ATOM      5  C   UNL     1       4.727  42.480  25.187  0.00  0.00    +0.344 C 
ATOM      6  O   UNL     1       4.032  43.100  24.444  0.00  0.00    -0.245 OA
ATOM      7  O   UNL     1       5.862  41.820  24.699  0.00  0.00    -0.457 OA
ATOM      8  C   UNL     1       6.120  41.906  23.306  0.00  0.00    +0.180 C 
ATOM      9  C   UNL     1       6.892  43.147  22.948  0.00  0.00    +0.052 C 
ATOM     10  C   UNL     1       6.898  40.618  22.992  0.00  0.00    +0.049 C 
ATOM     11  C   UNL     1       7.258  40.539  21.512  0.00  0.00    +0.015 C 
ATOM     12  C   UNL     1       6.037  39.411  23.394  0.00  0.00    -0.017 C 
ATOM     13  C   UNL     1       6.497  38.312  23.997  0.00  0.00    +0.045 C 
ATOM     14  C   UNL     1       7.938  38.077  24.472  0.00  0.00    +0.187 C 
ATOM     15  O   UNL     1       8.878  38.719  24.123  0.00  0.00    -0.290 OA
ATOM     16  C   UNL     1       8.077  37.021  25.601  0.00  0.00    +0.213 C 
ATOM     17  C   UNL     1       7.263  37.546  26.804  0.00  0.00    +0.154 C 
ATOM     18  C   UNL     1       7.880  38.765  27.505  0.00  0.00    +0.061 C 
ATOM     19  C   UNL     1       6.739  39.704  27.932  0.00  0.00    -0.024 C 
ATOM     20  C   UNL     1       6.385  40.744  27.172  0.00  0.00    +0.005 C 
ATOM     21  C   UNL     1       5.213  41.642  27.592  0.00  0.00    -0.006 A 
ATOM     22  C   UNL     1       4.876  41.658  28.931  0.00  0.00    +0.032 A 
ENDROOT
BRANCH   1  23
ATOM     23  N   UNL     1       3.511  42.411  30.814  0.00  0.00    -0.344 N 
ATOM     24  H   UNL     1       4.122  42.613  31.398  0.00  0.00    +0.146 HD
BRANCH  23  26
ATOM     25  C   UNL     1       2.009  40.541  31.060  0.00  0.00    +0.024 C 
ATOM     26  C   UNL     1       2.171  42.055  31.246  0.00  0.00    +0.098 C 
ENDBRANCH  23  26
ENDBRANCH   1  23
BRANCH   3  27
ATOM     27  O   UNL     1       2.633  43.950  26.279  0.00  0.00    -0.506 OA
ATOM     28  H   UNL     1       3.132  44.204  25.640  0.00  0.00    +0.292 HD
ENDBRANCH   3  27
BRANCH  16  29
ATOM     29  O   UNL     1       9.402  36.824  25.913  0.00  0.00    -0.381 OA
ATOM     30  H   UNL     1       9.499  36.062  26.276  0.00  0.00    +0.210 HD
ENDBRANCH  16  29
BRANCH  17  31
ATOM     31  O   UNL     1       7.114  36.534  27.757  0.00  0.00    -0.388 OA
ATOM     32  H   UNL     1       6.988  36.883  28.522  0.00  0.00    +0.210 HD
ENDBRANCH  17  31
TORSDOF 5
ENDMDL
MODEL 8
REMARK VINA RESULT:      -5.3      5.630      9.832
REMARK  Name = 6I1S_E26.pdb
REMARK  8 active torsions:
REMARK  status: ('A' for Active; 'I' for Inactive)
REMARK    1  A    between atoms: _1  and  _2
REMARK    2  A    between atoms: _2  and  _3
REMARK    3  A    between atoms: _3  and  _4
REMARK    4  A    between atoms: _10  and  _28
REMARK    5  A    between atoms: _11  and  _27
REMARK    6  A    between atoms: _15  and  _16
REMARK    7  A    between atoms: _17  and  _18
REMARK    8  A    between atoms: _22  and  _24
REMARK                            x       y       z     vdW  Elec       q    Type
REMARK                         _______ _______ _______ _____ _____    ______ ____
ROOT
ATOM      1  C   UNL     1       7.997  38.077  21.484  0.00  0.00    +0.031 A 
ATOM      2  C   UNL     1       7.691  39.338  20.986  0.00  0.00    +0.069 A 
ATOM      3  C   UNL     1       7.150  40.282  21.846  0.00  0.00    +0.133 A 
ATOM      4  C   UNL     1       6.899  39.979  23.192  0.00  0.00    +0.107 A 
ATOM      5  C   UNL     1       6.289  41.088  24.054  0.00  0.00    +0.344 C 
ATOM      6  O   UNL     1       6.087  42.180  23.625  0.00  0.00    -0.245 OA
ATOM      7  O   UNL     1       5.923  40.771  25.368  0.00  0.00    -0.457 OA
ATOM      8  C   UNL     1       5.335  41.801  26.149  0.00  0.00    +0.180 C 
ATOM      9  C   UNL     1       3.849  41.898  25.934  0.00  0.00    +0.052 C 
ATOM     10  C   UNL     1       5.697  41.424  27.594  0.00  0.00    +0.049 C 
ATOM     11  C   UNL     1       5.143  42.442  28.585  0.00  0.00    +0.015 C 
ATOM     12  C   UNL     1       7.227  41.344  27.715  0.00  0.00    -0.017 C 
ATOM     13  C   UNL     1       7.890  40.410  28.400  0.00  0.00    +0.045 C 
ATOM     14  C   UNL     1       7.269  39.206  29.124  0.00  0.00    +0.187 C 
ATOM     15  O   UNL     1       6.115  39.103  29.396  0.00  0.00    -0.290 OA
ATOM     16  C   UNL     1       8.242  38.017  29.340  0.00  0.00    +0.213 C 
ATOM     17  C   UNL     1       8.688  37.546  27.939  0.00  0.00    +0.154 C 
ATOM     18  C   UNL     1       7.591  36.846  27.124  0.00  0.00    +0.061 C 
ATOM     19  C   UNL     1       7.742  37.264  25.652  0.00  0.00    -0.024 C 
ATOM     20  C   UNL     1       7.013  38.260  25.142  0.00  0.00    +0.005 C 
ATOM     21  C   UNL     1       7.213  38.694  23.683  0.00  0.00    -0.006 A 
ATOM     22  C   UNL     1       7.763  37.768  22.818  0.00  0.00    +0.032 A 
ENDROOT
BRANCH   1  23
ATOM     23  N   UNL     1       8.569  37.068  20.619  0.00  0.00    -0.344 N 
ATOM     24  H   UNL     1       9.304  36.663  20.843  0.00  0.00    +0.146 HD
BRANCH  23  26
ATOM     25  C   UNL     1       8.848  37.111  18.225  0.00  0.00    +0.024 C 
ATOM     26  C   UNL     1       7.900  36.741  19.372  0.00  0.00    +0.098 C 
ENDBRANCH  23  26
ENDBRANCH   1  23
BRANCH   3  27
ATOM     27  O   UNL     1       6.832  41.555  21.366  0.00  0.00    -0.506 OA
ATOM     28  H   UNL     1       7.534  41.930  21.070  0.00  0.00    +0.292 HD
ENDBRANCH   3  27
BRANCH  16  29
ATOM     29  O   UNL     1       7.624  37.017  30.055  0.00  0.00    -0.381 OA
ATOM     30  H   UNL     1       8.191  36.413  30.247  0.00  0.00    +0.210 HD
ENDBRANCH  16  29
BRANCH  17  31
ATOM     31  O   UNL     1       9.766  36.663  28.052  0.00  0.00    -0.388 OA
ATOM     32  H   UNL     1      10.081  36.502  27.280  0.00  0.00    +0.210 HD
ENDBRANCH  17  31
TORSDOF 5
ENDMDL
MODEL 9
REMARK VINA RESULT:      -5.3      8.822     11.431
REMARK  Name = 6I1S_E26.pdb
REMARK  8 active torsions:
REMARK  status: ('A' for Active; 'I' for Inactive)
REMARK    1  A    between atoms: _1  and  _2
REMARK    2  A    between atoms: _2  and  _3
REMARK    3  A    between atoms: _3  and  _4
REMARK    4  A    between atoms: _10  and  _28
REMARK    5  A    between atoms: _11  and  _27
REMARK    6  A    between atoms: _15  and  _16
REMARK    7  A    between atoms: _17  and  _18
REMARK    8  A    between atoms: _22  and  _24
REMARK                            x       y       z     vdW  Elec       q    Type
REMARK                         _______ _______ _______ _____ _____    ______ ____
ROOT
ATOM      1  C   UNL     1       5.180  41.807  25.371  0.00  0.00    +0.031 A 
ATOM      2  C   UNL     1       6.215  42.464  26.026  0.00  0.00    +0.069 A 
ATOM      3  C   UNL     1       7.523  42.104  25.736  0.00  0.00    +0.133 A 
ATOM      4  C   UNL     1       7.809  41.089  24.812  0.00  0.00    +0.107 A 
ATOM      5  C   UNL     1       9.285  40.760  24.573  0.00  0.00    +0.344 C 
ATOM      6  O   UNL     1      10.160  41.372  25.100  0.00  0.00    -0.245 OA
ATOM      7  O   UNL     1       9.589  39.672  23.744  0.00  0.00    -0.457 OA
ATOM      8  C   UNL     1      10.961  39.362  23.551  0.00  0.00    +0.180 C 
ATOM      9  C   UNL     1      11.500  38.472  24.637  0.00  0.00    +0.052 C 
ATOM     10  C   UNL     1      10.998  38.693  22.168  0.00  0.00    +0.049 C 
ATOM     11  C   UNL     1      12.421  38.292  21.787  0.00  0.00    +0.015 C 
ATOM     12  C   UNL     1      10.427  39.670  21.130  0.00  0.00    -0.017 C 
ATOM     13  C   UNL     1       9.613  39.330  20.128  0.00  0.00    +0.045 C 
ATOM     14  C   UNL     1       9.034  37.931  19.867  0.00  0.00    +0.187 C 
ATOM     15  O   UNL     1       9.448  36.927  20.355  0.00  0.00    -0.290 OA
ATOM     16  C   UNL     1       7.727  37.924  19.030  0.00  0.00    +0.213 C 
ATOM     17  C   UNL     1       6.681  38.726  19.833  0.00  0.00    +0.154 C 
ATOM     18  C   UNL     1       6.182  38.027  21.105  0.00  0.00    +0.061 C 
ATOM     19  C   UNL     1       5.989  39.093  22.197  0.00  0.00    -0.024 C 
ATOM     20  C   UNL     1       6.940  39.328  23.105  0.00  0.00    +0.005 C 
ATOM     21  C   UNL     1       6.747  40.429  24.157  0.00  0.00    -0.006 A 
ATOM     22  C   UNL     1       5.451  40.807  24.446  0.00  0.00    +0.032 A 
ENDROOT
BRANCH   1  23
ATOM     23  N   UNL     1       3.803  42.160  25.643  0.00  0.00    -0.344 N 
ATOM     24  H   UNL     1       3.214  41.541  25.801  0.00  0.00    +0.146 HD
BRANCH  23  26
ATOM     25  C   UNL     1       3.367  44.035  24.191  0.00  0.00    +0.024 C 
ATOM     26  C   UNL     1       3.417  43.559  25.648  0.00  0.00    +0.098 C 
ENDBRANCH  23  26
ENDBRANCH   1  23
BRANCH   3  27
ATOM     27  O   UNL     1       8.579  42.749  26.385  0.00  0.00    -0.506 OA
ATOM     28  H   UNL     1       9.317  42.486  26.055  0.00  0.00    +0.292 HD
ENDBRANCH   3  27
BRANCH  16  29
ATOM     29  O   UNL     1       7.322  36.633  18.787  0.00  0.00    -0.381 OA
ATOM     30  H   UNL     1       7.658  36.362  18.055  0.00  0.00    +0.210 HD
ENDBRANCH  16  29
BRANCH  17  31
ATOM     31  O   UNL     1       5.568  38.996  19.029  0.00  0.00    -0.388 OA
ATOM     32  H   UNL     1       4.886  39.114  19.522  0.00  0.00    +0.210 HD
ENDBRANCH  17  31
TORSDOF 5
ENDMDL
