MODEL 1
REMARK VINA RESULT:      -4.8      0.000      0.000
REMARK  Name = 5S88_LU8.pdb
REMARK  6 active torsions:
REMARK  status: ('A' for Active; 'I' for Inactive)
REMARK    1  A    between atoms: _2  and  _3
REMARK    2  A    between atoms: _5  and  _6
REMARK    3  A    between atoms: _10  and  _11
REMARK    4  A    between atoms: _14  and  _15
REMARK    5  A    between atoms: _27  and  _28
REMARK    6  A    between atoms: _30  and  _31
REMARK                            x       y       z     vdW  Elec       q    Type
REMARK                         _______ _______ _______ _____ _____    ______ ____
ROOT
ATOM      1  C   UNL     1      28.206  20.434  21.492  0.00  0.00    +0.015 A 
ATOM      2  C   UNL     1      28.623  20.049  22.757  0.00  0.00    -0.019 A 
ATOM      3  C   UNL     1      29.999  20.425  23.220  0.00  0.00    +0.031 C 
ATOM      4  C   UNL     1      27.762  19.341  23.646  0.00  0.00    +0.015 A 
ATOM      5  C   UNL     1      26.498  19.144  23.163  0.00  0.00    +0.099 A 
ATOM      6  N   UNL     1      26.087  19.520  21.987  0.00  0.00    -0.242 NA
ATOM      7  C   UNL     1      26.904  20.153  21.136  0.00  0.00    +0.099 A 
ENDROOT
BRANCH   1  12
ATOM      8  C   UNL     1      30.636  21.311  18.720  0.00  0.00    +0.175 A 
ATOM      9  C   UNL     1      30.638  22.689  18.789  0.00  0.00    +0.206 A 
ATOM     10  C   UNL     1      29.909  23.320  19.773  0.00  0.00    +0.175 A 
ATOM     11  C   UNL     1      29.148  22.574  20.648  0.00  0.00    +0.040 A 
ATOM     12  C   UNL     1      29.108  21.174  20.569  0.00  0.00    +0.007 A 
ATOM     13  C   UNL     1      29.895  20.546  19.604  0.00  0.00    +0.040 A 
BRANCH   8  15
ATOM     14  C   UNL     1      30.773  20.015  16.725  0.00  0.00    +0.253 C 
ATOM     15  O   UNL     1      31.435  20.787  17.755  0.00  0.00    -0.468 OA
ENDBRANCH   8  15
BRANCH   9  16
ATOM     16  O   UNL     1      31.353  23.437  17.885  0.00  0.00    -0.465 OA
ATOM     17  C   UNL     1      30.741  23.772  16.686  0.00  0.00    +0.253 C 
ENDBRANCH   9  16
BRANCH  10  18
ATOM     18  O   UNL     1      29.966  24.703  19.784  0.00  0.00    -0.468 OA
ATOM     19  C   UNL     1      28.820  25.493  20.120  0.00  0.00    +0.253 C 
ENDBRANCH  10  18
ENDBRANCH   1  12
BRANCH   4  20
ATOM     20  C   UNL     1      28.127  18.883  24.994  0.00  0.00    +0.001 A 
ATOM     21  C   UNL     1      28.129  19.804  26.104  0.00  0.00    -0.000 A 
ATOM     22  C   UNL     1      28.478  19.424  27.375  0.00  0.00    -0.004 A 
ATOM     23  C   UNL     1      28.897  18.108  27.631  0.00  0.00    -0.022 A 
ATOM     24  C   UNL     1      28.877  17.208  26.543  0.00  0.00    -0.004 A 
ATOM     25  C   UNL     1      28.561  17.574  25.284  0.00  0.00    -0.000 A 
BRANCH  23  26
ATOM     26  C   UNL     1      29.178  17.762  29.048  0.00  0.00    +0.025 C 
ATOM     27  C   UNL     1      28.024  17.165  29.798  0.00  0.00    +0.022 C 
ATOM     28  C   UNL     1      28.572  16.733  31.155  0.00  0.00    +0.072 C 
ATOM     29  N   UNL     1      28.941  17.913  31.989  0.00  0.00    -0.271 NA
ATOM     30  C   UNL     1      27.744  18.710  32.357  0.00  0.00    +0.090 C 
ATOM     31  C   UNL     1      29.990  18.726  31.326  0.00  0.00    +0.072 C 
ATOM     32  C   UNL     1      29.774  18.954  29.816  0.00  0.00    +0.022 C 
ENDBRANCH  23  26
ENDBRANCH   4  20
TORSDOF 6
ENDMDL
MODEL 2
REMARK VINA RESULT:      -4.8      0.253      2.227
REMARK  Name = 5S88_LU8.pdb
REMARK  6 active torsions:
REMARK  status: ('A' for Active; 'I' for Inactive)
REMARK    1  A    between atoms: _2  and  _3
REMARK    2  A    between atoms: _5  and  _6
REMARK    3  A    between atoms: _10  and  _11
REMARK    4  A    between atoms: _14  and  _15
REMARK    5  A    between atoms: _27  and  _28
REMARK    6  A    between atoms: _30  and  _31
REMARK                            x       y       z     vdW  Elec       q    Type
REMARK                         _______ _______ _______ _____ _____    ______ ____
ROOT
ATOM      1  C   UNL     1      28.178  20.609  21.441  0.00  0.00    +0.015 A 
ATOM      2  C   UNL     1      28.609  20.229  22.703  0.00  0.00    -0.019 A 
ATOM      3  C   UNL     1      29.931  20.727  23.205  0.00  0.00    +0.031 C 
ATOM      4  C   UNL     1      27.807  19.412  23.554  0.00  0.00    +0.015 A 
ATOM      5  C   UNL     1      26.579  19.104  23.039  0.00  0.00    +0.099 A 
ATOM      6  N   UNL     1      26.153  19.472  21.866  0.00  0.00    -0.242 NA
ATOM      7  C   UNL     1      26.917  20.209  21.050  0.00  0.00    +0.099 A 
ENDROOT
BRANCH   1  12
ATOM      8  C   UNL     1      29.987  23.558  19.896  0.00  0.00    +0.175 A 
ATOM      9  C   UNL     1      30.755  22.930  18.937  0.00  0.00    +0.206 A 
ATOM     10  C   UNL     1      30.632  21.571  18.752  0.00  0.00    +0.175 A 
ATOM     11  C   UNL     1      29.779  20.843  19.555  0.00  0.00    +0.040 A 
ATOM     12  C   UNL     1      29.018  21.462  20.558  0.00  0.00    +0.007 A 
ATOM     13  C   UNL     1      29.110  22.846  20.697  0.00  0.00    +0.040 A 
BRANCH   8  15
ATOM     14  C   UNL     1      28.935  25.677  20.184  0.00  0.00    +0.253 C 
ATOM     15  O   UNL     1      30.139  24.906  19.957  0.00  0.00    -0.468 OA
ENDBRANCH   8  15
BRANCH   9  16
ATOM     16  O   UNL     1      31.645  23.645  18.171  0.00  0.00    -0.465 OA
ATOM     17  C   UNL     1      31.223  24.098  16.930  0.00  0.00    +0.253 C 
ENDBRANCH   9  16
BRANCH  10  18
ATOM     18  O   UNL     1      31.429  21.013  17.766  0.00  0.00    -0.468 OA
ATOM     19  C   UNL     1      30.861  20.257  16.690  0.00  0.00    +0.253 C 
ENDBRANCH  10  18
ENDBRANCH   1  12
BRANCH   4  20
ATOM     20  C   UNL     1      28.192  18.953  24.896  0.00  0.00    +0.001 A 
ATOM     21  C   UNL     1      28.047  19.823  26.037  0.00  0.00    -0.000 A 
ATOM     22  C   UNL     1      28.408  19.443  27.304  0.00  0.00    -0.004 A 
ATOM     23  C   UNL     1      28.986  18.182  27.527  0.00  0.00    -0.022 A 
ATOM     24  C   UNL     1      29.111  17.330  26.408  0.00  0.00    -0.004 A 
ATOM     25  C   UNL     1      28.784  17.700  25.154  0.00  0.00    -0.000 A 
BRANCH  23  26
ATOM     26  C   UNL     1      29.271  17.821  28.940  0.00  0.00    +0.025 C 
ATOM     27  C   UNL     1      28.115  17.231  29.692  0.00  0.00    +0.022 C 
ATOM     28  C   UNL     1      28.666  16.781  31.042  0.00  0.00    +0.072 C 
ATOM     29  N   UNL     1      29.055  17.949  31.883  0.00  0.00    -0.271 NA
ATOM     30  C   UNL     1      27.870  18.758  32.265  0.00  0.00    +0.090 C 
ATOM     31  C   UNL     1      30.110  18.755  31.220  0.00  0.00    +0.072 C 
ATOM     32  C   UNL     1      29.888  18.998  29.713  0.00  0.00    +0.022 C 
ENDBRANCH  23  26
ENDBRANCH   4  20
TORSDOF 6
ENDMDL
MODEL 3
REMARK VINA RESULT:      -4.5      3.159      5.274
REMARK  Name = 5S88_LU8.pdb
REMARK  6 active torsions:
REMARK  status: ('A' for Active; 'I' for Inactive)
REMARK    1  A    between atoms: _2  and  _3
REMARK    2  A    between atoms: _5  and  _6
REMARK    3  A    between atoms: _10  and  _11
REMARK    4  A    between atoms: _14  and  _15
REMARK    5  A    between atoms: _27  and  _28
REMARK    6  A    between atoms: _30  and  _31
REMARK                            x       y       z     vdW  Elec       q    Type
REMARK                         _______ _______ _______ _____ _____    ______ ____
ROOT
ATOM      1  C   UNL     1      29.691  18.391  25.038  0.00  0.00    +0.015 A 
ATOM      2  C   UNL     1      29.401  18.918  26.288  0.00  0.00    -0.019 A 
ATOM      3  C   UNL     1      28.169  19.755  26.460  0.00  0.00    +0.031 C 
ATOM      4  C   UNL     1      30.221  18.649  27.423  0.00  0.00    +0.015 A 
ATOM      5  C   UNL     1      31.256  17.791  27.175  0.00  0.00    +0.099 A 
ATOM      6  N   UNL     1      31.526  17.272  26.012  0.00  0.00    -0.242 NA
ATOM      7  C   UNL     1      30.780  17.551  24.937  0.00  0.00    +0.099 A 
ENDROOT
BRANCH   1  12
ATOM      8  C   UNL     1      26.983  18.215  22.394  0.00  0.00    +0.175 A 
ATOM      9  C   UNL     1      27.186  19.402  21.720  0.00  0.00    +0.206 A 
ATOM     10  C   UNL     1      28.237  20.215  22.081  0.00  0.00    +0.175 A 
ATOM     11  C   UNL     1      29.047  19.861  23.140  0.00  0.00    +0.040 A 
ATOM     12  C   UNL     1      28.831  18.675  23.857  0.00  0.00    +0.007 A 
ATOM     13  C   UNL     1      27.798  17.834  23.446  0.00  0.00    +0.040 A 
BRANCH   8  15
ATOM     14  C   UNL     1      26.289  16.105  21.529  0.00  0.00    +0.253 C 
ATOM     15  O   UNL     1      25.959  17.458  21.921  0.00  0.00    -0.468 OA
ENDBRANCH   8  15
BRANCH   9  16
ATOM     16  O   UNL     1      26.349  19.783  20.699  0.00  0.00    -0.465 OA
ATOM     17  C   UNL     1      26.668  19.386  19.409  0.00  0.00    +0.253 C 
ENDBRANCH   9  16
BRANCH  10  18
ATOM     18  O   UNL     1      28.383  21.384  21.354  0.00  0.00    -0.468 OA
ATOM     19  C   UNL     1      29.650  21.766  20.805  0.00  0.00    +0.253 C 
ENDBRANCH  10  18
ENDBRANCH   1  12
BRANCH   4  20
ATOM     20  C   UNL     1      29.995  19.176  28.776  0.00  0.00    +0.001 A 
ATOM     21  C   UNL     1      30.889  20.157  29.338  0.00  0.00    -0.000 A 
ATOM     22  C   UNL     1      30.726  20.665  30.602  0.00  0.00    -0.004 A 
ATOM     23  C   UNL     1      29.684  20.199  31.422  0.00  0.00    -0.022 A 
ATOM     24  C   UNL     1      28.803  19.251  30.859  0.00  0.00    -0.004 A 
ATOM     25  C   UNL     1      28.967  18.725  29.628  0.00  0.00    -0.000 A 
BRANCH  23  26
ATOM     26  C   UNL     1      29.532  20.861  32.744  0.00  0.00    +0.025 C 
ATOM     27  C   UNL     1      30.782  21.481  33.292  0.00  0.00    +0.022 C 
ATOM     28  C   UNL     1      30.368  22.242  34.549  0.00  0.00    +0.072 C 
ATOM     29  N   UNL     1      29.953  21.306  35.634  0.00  0.00    -0.271 NA
ATOM     30  C   UNL     1      31.096  20.487  36.107  0.00  0.00    +0.090 C 
ATOM     31  C   UNL     1      28.793  20.483  35.211  0.00  0.00    +0.072 C 
ATOM     32  C   UNL     1      28.884  19.923  33.777  0.00  0.00    +0.022 C 
ENDBRANCH  23  26
ENDBRANCH   4  20
TORSDOF 6
ENDMDL
MODEL 4
REMARK VINA RESULT:      -4.5      6.115      7.279
REMARK  Name = 5S88_LU8.pdb
REMARK  6 active torsions:
REMARK  status: ('A' for Active; 'I' for Inactive)
REMARK    1  A    between atoms: _2  and  _3
REMARK    2  A    between atoms: _5  and  _6
REMARK    3  A    between atoms: _10  and  _11
REMARK    4  A    between atoms: _14  and  _15
REMARK    5  A    between atoms: _27  and  _28
REMARK    6  A    between atoms: _30  and  _31
REMARK                            x       y       z     vdW  Elec       q    Type
REMARK                         _______ _______ _______ _____ _____    ______ ____
ROOT
ATOM      1  C   UNL     1      31.170  24.290  19.818  0.00  0.00    +0.015 A 
ATOM      2  C   UNL     1      30.247  24.648  20.789  0.00  0.00    -0.019 A 
ATOM      3  C   UNL     1      28.912  23.966  20.816  0.00  0.00    +0.031 C 
ATOM      4  C   UNL     1      30.551  25.617  21.790  0.00  0.00    +0.015 A 
ATOM      5  C   UNL     1      31.831  26.096  21.735  0.00  0.00    +0.099 A 
ATOM      6  N   UNL     1      32.713  25.752  20.843  0.00  0.00    -0.242 NA
ATOM      7  C   UNL     1      32.419  24.870  19.880  0.00  0.00    +0.099 A 
ENDROOT
BRANCH   1  12
ATOM      8  C   UNL     1      30.577  21.023  17.992  0.00  0.00    +0.175 A 
ATOM      9  C   UNL     1      30.055  21.473  16.796  0.00  0.00    +0.206 A 
ATOM     10  C   UNL     1      29.963  22.828  16.564  0.00  0.00    +0.175 A 
ATOM     11  C   UNL     1      30.348  23.720  17.542  0.00  0.00    +0.040 A 
ATOM     12  C   UNL     1      30.848  23.277  18.776  0.00  0.00    +0.007 A 
ATOM     13  C   UNL     1      30.988  21.905  18.977  0.00  0.00    +0.040 A 
BRANCH   8  15
ATOM     14  C   UNL     1      31.312  19.170  19.298  0.00  0.00    +0.253 C 
ATOM     15  O   UNL     1      30.682  19.673  18.097  0.00  0.00    -0.468 OA
ENDBRANCH   8  15
BRANCH   9  16
ATOM     16  O   UNL     1      29.621  20.586  15.840  0.00  0.00    -0.465 OA
ATOM     17  C   UNL     1      28.306  20.148  15.905  0.00  0.00    +0.253 C 
ENDBRANCH   9  16
BRANCH  10  18
ATOM     18  O   UNL     1      29.437  23.203  15.339  0.00  0.00    -0.468 OA
ATOM     19  C   UNL     1      30.044  24.236  14.555  0.00  0.00    +0.253 C 
ENDBRANCH  10  18
ENDBRANCH   1  12
BRANCH   4  20
ATOM     20  C   UNL     1      29.630  26.063  22.845  0.00  0.00    +0.001 A 
ATOM     21  C   UNL     1      29.762  25.565  24.191  0.00  0.00    -0.000 A 
ATOM     22  C   UNL     1      28.916  25.942  25.203  0.00  0.00    -0.004 A 
ATOM     23  C   UNL     1      27.842  26.810  24.940  0.00  0.00    -0.022 A 
ATOM     24  C   UNL     1      27.729  27.306  23.624  0.00  0.00    -0.004 A 
ATOM     25  C   UNL     1      28.538  26.924  22.615  0.00  0.00    -0.000 A 
BRANCH  23  26
ATOM     26  C   UNL     1      27.025  27.229  26.109  0.00  0.00    +0.025 C 
ATOM     27  C   UNL     1      27.344  28.590  26.652  0.00  0.00    +0.022 C 
ATOM     28  C   UNL     1      26.290  28.885  27.716  0.00  0.00    +0.072 C 
ATOM     29  N   UNL     1      26.460  28.000  28.904  0.00  0.00    -0.271 NA
ATOM     30  C   UNL     1      27.732  28.286  29.614  0.00  0.00    +0.090 C 
ATOM     31  C   UNL     1      26.322  26.571  28.527  0.00  0.00    +0.072 C 
ATOM     32  C   UNL     1      27.047  26.172  27.225  0.00  0.00    +0.022 C 
ENDBRANCH  23  26
ENDBRANCH   4  20
TORSDOF 6
ENDMDL
MODEL 5
REMARK VINA RESULT:      -4.5     10.379     14.516
REMARK  Name = 5S88_LU8.pdb
REMARK  6 active torsions:
REMARK  status: ('A' for Active; 'I' for Inactive)
REMARK    1  A    between atoms: _2  and  _3
REMARK    2  A    between atoms: _5  and  _6
REMARK    3  A    between atoms: _10  and  _11
REMARK    4  A    between atoms: _14  and  _15
REMARK    5  A    between atoms: _27  and  _28
REMARK    6  A    between atoms: _30  and  _31
REMARK                            x       y       z     vdW  Elec       q    Type
REMARK                         _______ _______ _______ _____ _____    ______ ____
ROOT
ATOM      1  C   UNL     1      19.862  15.240  15.457  0.00  0.00    +0.015 A 
ATOM      2  C   UNL     1      21.090  15.881  15.509  0.00  0.00    -0.019 A 
ATOM      3  C   UNL     1      22.280  15.138  16.038  0.00  0.00    +0.031 C 
ATOM      4  C   UNL     1      21.260  17.214  15.033  0.00  0.00    +0.015 A 
ATOM      5  C   UNL     1      20.136  17.757  14.476  0.00  0.00    +0.099 A 
ATOM      6  N   UNL     1      18.983  17.159  14.400  0.00  0.00    -0.242 NA
ATOM      7  C   UNL     1      18.811  15.921  14.879  0.00  0.00    +0.099 A 
ENDROOT
BRANCH   1  12
ATOM      8  C   UNL     1      19.174  12.229  17.652  0.00  0.00    +0.175 A 
ATOM      9  C   UNL     1      19.230  11.204  16.729  0.00  0.00    +0.206 A 
ATOM     10  C   UNL     1      19.555  11.487  15.421  0.00  0.00    +0.175 A 
ATOM     11  C   UNL     1      19.777  12.792  15.035  0.00  0.00    +0.040 A 
ATOM     12  C   UNL     1      19.690  13.848  15.954  0.00  0.00    +0.007 A 
ATOM     13  C   UNL     1      19.414  13.542  17.286  0.00  0.00    +0.040 A 
BRANCH   8  15
ATOM     14  C   UNL     1      17.726  12.411  19.536  0.00  0.00    +0.253 C 
ATOM     15  O   UNL     1      18.905  11.837  18.924  0.00  0.00    -0.468 OA
ENDBRANCH   8  15
BRANCH   9  16
ATOM     16  O   UNL     1      18.957   9.909  17.099  0.00  0.00    -0.465 OA
ATOM     17  C   UNL     1      17.642   9.471  17.025  0.00  0.00    +0.253 C 
ENDBRANCH   9  16
BRANCH  10  18
ATOM     18  O   UNL     1      19.600  10.407  14.555  0.00  0.00    -0.468 OA
ATOM     19  C   UNL     1      20.829   9.985  13.955  0.00  0.00    +0.253 C 
ENDBRANCH  10  18
ENDBRANCH   1  12
BRANCH   4  20
ATOM     20  C   UNL     1      22.520  17.970  15.064  0.00  0.00    +0.001 A 
ATOM     21  C   UNL     1      22.935  18.652  16.264  0.00  0.00    -0.000 A 
ATOM     22  C   UNL     1      24.095  19.383  16.333  0.00  0.00    -0.004 A 
ATOM     23  C   UNL     1      24.908  19.529  15.197  0.00  0.00    -0.022 A 
ATOM     24  C   UNL     1      24.503  18.846  14.030  0.00  0.00    -0.004 A 
ATOM     25  C   UNL     1      23.354  18.146  13.941  0.00  0.00    -0.000 A 
BRANCH  23  26
ATOM     26  C   UNL     1      26.183  20.268  15.382  0.00  0.00    +0.025 C 
ATOM     27  C   UNL     1      26.834  20.740  14.116  0.00  0.00    +0.022 C 
ATOM     28  C   UNL     1      28.015  21.609  14.539  0.00  0.00    +0.072 C 
ATOM     29  N   UNL     1      29.084  20.791  15.183  0.00  0.00    -0.271 NA
ATOM     30  C   UNL     1      29.699  19.849  14.214  0.00  0.00    +0.090 C 
ATOM     31  C   UNL     1      28.574  20.112  16.399  0.00  0.00    +0.072 C 
ATOM     32  C   UNL     1      27.177  19.476  16.249  0.00  0.00    +0.022 C 
ENDBRANCH  23  26
ENDBRANCH   4  20
TORSDOF 6
ENDMDL
MODEL 6
REMARK VINA RESULT:      -4.3      4.701     10.618
REMARK  Name = 5S88_LU8.pdb
REMARK  6 active torsions:
REMARK  status: ('A' for Active; 'I' for Inactive)
REMARK    1  A    between atoms: _2  and  _3
REMARK    2  A    between atoms: _5  and  _6
REMARK    3  A    between atoms: _10  and  _11
REMARK    4  A    between atoms: _14  and  _15
REMARK    5  A    between atoms: _27  and  _28
REMARK    6  A    between atoms: _30  and  _31
REMARK                            x       y       z     vdW  Elec       q    Type
REMARK                         _______ _______ _______ _____ _____    ______ ____
ROOT
ATOM      1  C   UNL     1      29.625  19.467  25.038  0.00  0.00    +0.015 A 
ATOM      2  C   UNL     1      28.846  19.149  23.937  0.00  0.00    -0.019 A 
ATOM      3  C   UNL     1      27.939  17.956  24.003  0.00  0.00    +0.031 C 
ATOM      4  C   UNL     1      28.851  19.951  22.758  0.00  0.00    +0.015 A 
ATOM      5  C   UNL     1      29.632  21.070  22.846  0.00  0.00    +0.099 A 
ATOM      6  N   UNL     1      30.351  21.393  23.881  0.00  0.00    -0.242 NA
ATOM      7  C   UNL     1      30.376  20.623  24.976  0.00  0.00    +0.099 A 
ENDROOT
BRANCH   1  12
ATOM      8  C   UNL     1      28.845  18.068  28.472  0.00  0.00    +0.175 A 
ATOM      9  C   UNL     1      29.553  16.883  28.447  0.00  0.00    +0.206 A 
ATOM     10  C   UNL     1      30.329  16.580  27.351  0.00  0.00    +0.175 A 
ATOM     11  C   UNL     1      30.356  17.436  26.271  0.00  0.00    +0.040 A 
ATOM     12  C   UNL     1      29.615  18.627  26.266  0.00  0.00    +0.007 A 
ATOM     13  C   UNL     1      28.877  18.949  27.404  0.00  0.00    +0.040 A 
BRANCH   8  15
ATOM     14  C   UNL     1      28.823  19.129  30.606  0.00  0.00    +0.253 C 
ATOM     15  O   UNL     1      28.161  18.300  29.622  0.00  0.00    -0.468 OA
ENDBRANCH   8  15
BRANCH   9  16
ATOM     16  O   UNL     1      29.486  16.002  29.500  0.00  0.00    -0.465 OA
ATOM     17  C   UNL     1      28.534  14.994  29.448  0.00  0.00    +0.253 C 
ENDBRANCH   9  16
BRANCH  10  18
ATOM     18  O   UNL     1      31.017  15.379  27.402  0.00  0.00    -0.468 OA
ATOM     19  C   UNL     1      30.830  14.371  26.403  0.00  0.00    +0.253 C 
ENDBRANCH  10  18
ENDBRANCH   1  12
BRANCH   4  20
ATOM     20  C   UNL     1      28.069  19.678  21.544  0.00  0.00    +0.001 A 
ATOM     21  C   UNL     1      28.642  18.921  20.459  0.00  0.00    -0.000 A 
ATOM     22  C   UNL     1      27.954  18.656  19.301  0.00  0.00    -0.004 A 
ATOM     23  C   UNL     1      26.658  19.166  19.116  0.00  0.00    -0.022 A 
ATOM     24  C   UNL     1      26.098  19.893  20.188  0.00  0.00    -0.004 A 
ATOM     25  C   UNL     1      26.772  20.182  21.320  0.00  0.00    -0.000 A 
BRANCH  23  26
ATOM     26  C   UNL     1      25.957  18.764  17.869  0.00  0.00    +0.025 C 
ATOM     27  C   UNL     1      26.790  18.824  16.623  0.00  0.00    +0.022 C 
ATOM     28  C   UNL     1      25.942  18.214  15.511  0.00  0.00    +0.072 C 
ATOM     29  N   UNL     1      24.778  19.086  15.179  0.00  0.00    -0.271 NA
ATOM     30  C   UNL     1      25.220  20.374  14.588  0.00  0.00    +0.090 C 
ATOM     31  C   UNL     1      23.898  19.268  16.359  0.00  0.00    +0.072 C 
ATOM     32  C   UNL     1      24.638  19.534  17.686  0.00  0.00    +0.022 C 
ENDBRANCH  23  26
ENDBRANCH   4  20
TORSDOF 6
ENDMDL
MODEL 7
REMARK VINA RESULT:      -4.3      4.806     10.456
REMARK  Name = 5S88_LU8.pdb
REMARK  6 active torsions:
REMARK  status: ('A' for Active; 'I' for Inactive)
REMARK    1  A    between atoms: _2  and  _3
REMARK    2  A    between atoms: _5  and  _6
REMARK    3  A    between atoms: _10  and  _11
REMARK    4  A    between atoms: _14  and  _15
REMARK    5  A    between atoms: _27  and  _28
REMARK    6  A    between atoms: _30  and  _31
REMARK                            x       y       z     vdW  Elec       q    Type
REMARK                         _______ _______ _______ _____ _____    ______ ____
ROOT
ATOM      1  C   UNL     1      29.669  19.296  25.433  0.00  0.00    +0.015 A 
ATOM      2  C   UNL     1      28.924  19.002  24.301  0.00  0.00    -0.019 A 
ATOM      3  C   UNL     1      28.045  17.787  24.300  0.00  0.00    +0.031 C 
ATOM      4  C   UNL     1      28.939  19.848  23.154  0.00  0.00    +0.015 A 
ATOM      5  C   UNL     1      29.691  20.981  23.303  0.00  0.00    +0.099 A 
ATOM      6  N   UNL     1      30.377  21.280  24.368  0.00  0.00    -0.242 NA
ATOM      7  C   UNL     1      30.394  20.470  25.433  0.00  0.00    +0.099 A 
ENDROOT
BRANCH   1  12
ATOM      8  C   UNL     1      30.352  16.482  27.878  0.00  0.00    +0.175 A 
ATOM      9  C   UNL     1      29.659  16.917  28.989  0.00  0.00    +0.206 A 
ATOM     10  C   UNL     1      28.924  18.079  28.918  0.00  0.00    +0.175 A 
ATOM     11  C   UNL     1      28.922  18.821  27.756  0.00  0.00    +0.040 A 
ATOM     12  C   UNL     1      29.649  18.410  26.628  0.00  0.00    +0.007 A 
ATOM     13  C   UNL     1      30.345  17.204  26.696  0.00  0.00    +0.040 A 
BRANCH   8  15
ATOM     14  C   UNL     1      30.507  14.193  27.234  0.00  0.00    +0.253 C 
ATOM     15  O   UNL     1      30.995  15.296  28.033  0.00  0.00    -0.468 OA
ENDBRANCH   8  15
BRANCH   9  16
ATOM     16  O   UNL     1      29.703  16.208  30.166  0.00  0.00    -0.465 OA
ATOM     17  C   UNL     1      28.713  15.264  30.396  0.00  0.00    +0.253 C 
ENDBRANCH   9  16
BRANCH  10  18
ATOM     18  O   UNL     1      28.249  18.447  30.070  0.00  0.00    -0.468 OA
ATOM     19  C   UNL     1      28.843  19.325  31.032  0.00  0.00    +0.253 C 
ENDBRANCH  10  18
ENDBRANCH   1  12
BRANCH   4  20
ATOM     20  C   UNL     1      28.193  19.604  21.912  0.00  0.00    +0.001 A 
ATOM     21  C   UNL     1      28.798  18.874  20.826  0.00  0.00    -0.000 A 
ATOM     22  C   UNL     1      28.144  18.637  19.643  0.00  0.00    -0.004 A 
ATOM     23  C   UNL     1      26.853  19.150  19.432  0.00  0.00    -0.022 A 
ATOM     24  C   UNL     1      26.261  19.851  20.505  0.00  0.00    -0.004 A 
ATOM     25  C   UNL     1      26.902  20.112  21.663  0.00  0.00    -0.000 A 
BRANCH  23  26
ATOM     26  C   UNL     1      26.189  18.778  18.156  0.00  0.00    +0.025 C 
ATOM     27  C   UNL     1      27.063  18.855  16.939  0.00  0.00    +0.022 C 
ATOM     28  C   UNL     1      26.246  18.274  15.788  0.00  0.00    +0.072 C 
ATOM     29  N   UNL     1      25.100  19.161  15.437  0.00  0.00    -0.271 NA
ATOM     30  C   UNL     1      25.570  20.457  14.885  0.00  0.00    +0.090 C 
ATOM     31  C   UNL     1      24.183  19.328  16.592  0.00  0.00    +0.072 C 
ATOM     32  C   UNL     1      24.883  19.562  17.946  0.00  0.00    +0.022 C 
ENDBRANCH  23  26
ENDBRANCH   4  20
TORSDOF 6
ENDMDL
MODEL 8
REMARK VINA RESULT:      -4.3      5.693     11.293
REMARK  Name = 5S88_LU8.pdb
REMARK  6 active torsions:
REMARK  status: ('A' for Active; 'I' for Inactive)
REMARK    1  A    between atoms: _2  and  _3
REMARK    2  A    between atoms: _5  and  _6
REMARK    3  A    between atoms: _10  and  _11
REMARK    4  A    between atoms: _14  and  _15
REMARK    5  A    between atoms: _27  and  _28
REMARK    6  A    between atoms: _30  and  _31
REMARK                            x       y       z     vdW  Elec       q    Type
REMARK                         _______ _______ _______ _____ _____    ______ ____
ROOT
ATOM      1  C   UNL     1      30.237  19.392  29.953  0.00  0.00    +0.015 A 
ATOM      2  C   UNL     1      29.556  19.074  28.788  0.00  0.00    -0.019 A 
ATOM      3  C   UNL     1      28.315  18.236  28.872  0.00  0.00    +0.031 C 
ATOM      4  C   UNL     1      29.980  19.558  27.516  0.00  0.00    +0.015 A 
ATOM      5  C   UNL     1      31.058  20.398  27.568  0.00  0.00    +0.099 A 
ATOM      6  N   UNL     1      31.692  20.723  28.657  0.00  0.00    -0.242 NA
ATOM      7  C   UNL     1      31.319  20.241  29.848  0.00  0.00    +0.099 A 
ENDROOT
BRANCH   1  12
ATOM      8  C   UNL     1      29.539  17.171  32.942  0.00  0.00    +0.175 A 
ATOM      9  C   UNL     1      29.060  18.089  33.855  0.00  0.00    +0.206 A 
ATOM     10  C   UNL     1      28.903  19.403  33.475  0.00  0.00    +0.175 A 
ATOM     11  C   UNL     1      29.268  19.799  32.206  0.00  0.00    +0.040 A 
ATOM     12  C   UNL     1      29.789  18.885  31.278  0.00  0.00    +0.007 A 
ATOM     13  C   UNL     1      29.891  17.547  31.657  0.00  0.00    +0.040 A 
BRANCH   8  15
ATOM     14  C   UNL     1      30.755  15.121  32.993  0.00  0.00    +0.253 C 
ATOM     15  O   UNL     1      29.599  15.892  33.397  0.00  0.00    -0.468 OA
ENDBRANCH   8  15
BRANCH   9  16
ATOM     16  O   UNL     1      28.747  17.707  35.137  0.00  0.00    -0.465 OA
ATOM     17  C   UNL     1      27.426  17.393  35.421  0.00  0.00    +0.253 C 
ENDBRANCH   9  16
BRANCH  10  18
ATOM     18  O   UNL     1      28.410  20.264  34.441  0.00  0.00    -0.468 OA
ATOM     19  C   UNL     1      29.282  21.114  35.195  0.00  0.00    +0.253 C 
ENDBRANCH  10  18
ENDBRANCH   1  12
BRANCH   4  20
ATOM     20  C   UNL     1      29.327  19.259  26.234  0.00  0.00    +0.001 A 
ATOM     21  C   UNL     1      28.115  19.940  25.854  0.00  0.00    -0.000 A 
ATOM     22  C   UNL     1      27.463  19.680  24.674  0.00  0.00    -0.004 A 
ATOM     23  C   UNL     1      27.943  18.688  23.804  0.00  0.00    -0.022 A 
ATOM     24  C   UNL     1      29.139  18.036  24.175  0.00  0.00    -0.004 A 
ATOM     25  C   UNL     1      29.775  18.263  25.342  0.00  0.00    -0.000 A 
BRANCH  23  26
ATOM     26  C   UNL     1      27.223  18.529  22.514  0.00  0.00    +0.025 C 
ATOM     27  C   UNL     1      27.883  17.613  21.526  0.00  0.00    +0.022 C 
ATOM     28  C   UNL     1      26.905  17.461  20.364  0.00  0.00    +0.072 C 
ATOM     29  N   UNL     1      26.770  18.736  19.602  0.00  0.00    -0.271 NA
ATOM     30  C   UNL     1      28.039  19.094  18.919  0.00  0.00    +0.090 C 
ATOM     31  C   UNL     1      26.259  19.823  20.472  0.00  0.00    +0.072 C 
ATOM     32  C   UNL     1      26.902  19.889  21.872  0.00  0.00    +0.022 C 
ENDBRANCH  23  26
ENDBRANCH   4  20
TORSDOF 6
ENDMDL
MODEL 9
REMARK VINA RESULT:      -4.3      3.603      4.875
REMARK  Name = 5S88_LU8.pdb
REMARK  6 active torsions:
REMARK  status: ('A' for Active; 'I' for Inactive)
REMARK    1  A    between atoms: _2  and  _3
REMARK    2  A    between atoms: _5  and  _6
REMARK    3  A    between atoms: _10  and  _11
REMARK    4  A    between atoms: _14  and  _15
REMARK    5  A    between atoms: _27  and  _28
REMARK    6  A    between atoms: _30  and  _31
REMARK                            x       y       z     vdW  Elec       q    Type
REMARK                         _______ _______ _______ _____ _____    ______ ____
ROOT
ATOM      1  C   UNL     1      26.710  17.877  19.587  0.00  0.00    +0.015 A 
ATOM      2  C   UNL     1      27.261  18.526  20.682  0.00  0.00    -0.019 A 
ATOM      3  C   UNL     1      27.679  19.959  20.548  0.00  0.00    +0.031 C 
ATOM      4  C   UNL     1      27.400  17.878  21.944  0.00  0.00    +0.015 A 
ATOM      5  C   UNL     1      26.890  16.610  21.982  0.00  0.00    +0.099 A 
ATOM      6  N   UNL     1      26.351  15.997  20.969  0.00  0.00    -0.242 NA
ATOM      7  C   UNL     1      26.252  16.589  19.772  0.00  0.00    +0.099 A 
ENDROOT
BRANCH   1  12
ATOM      8  C   UNL     1      25.299  19.681  16.568  0.00  0.00    +0.175 A 
ATOM      9  C   UNL     1      26.450  19.970  15.865  0.00  0.00    +0.206 A 
ATOM     10  C   UNL     1      27.664  19.522  16.336  0.00  0.00    +0.175 A 
ATOM     11  C   UNL     1      27.724  18.830  17.528  0.00  0.00    +0.040 A 
ATOM     12  C   UNL     1      26.567  18.558  18.272  0.00  0.00    +0.007 A 
ATOM     13  C   UNL     1      25.339  18.969  17.755  0.00  0.00    +0.040 A 
BRANCH   8  15
ATOM     14  C   UNL     1      23.282  19.094  15.442  0.00  0.00    +0.253 C 
ATOM     15  O   UNL     1      24.151  20.115  15.988  0.00  0.00    -0.468 OA
ENDBRANCH   8  15
BRANCH   9  16
ATOM     16  O   UNL     1      26.399  20.706  14.705  0.00  0.00    -0.465 OA
ATOM     17  C   UNL     1      26.332  20.023  13.500  0.00  0.00    +0.253 C 
ENDBRANCH   9  16
BRANCH  10  18
ATOM     18  O   UNL     1      28.773  19.844  15.573  0.00  0.00    -0.468 OA
ATOM     19  C   UNL     1      29.701  20.850  15.995  0.00  0.00    +0.253 C 
ENDBRANCH  10  18
ENDBRANCH   1  12
BRANCH   4  20
ATOM     20  C   UNL     1      27.983  18.486  23.149  0.00  0.00    +0.001 A 
ATOM     21  C   UNL     1      29.379  18.302  23.458  0.00  0.00    -0.000 A 
ATOM     22  C   UNL     1      29.962  18.837  24.579  0.00  0.00    -0.004 A 
ATOM     23  C   UNL     1      29.188  19.558  25.503  0.00  0.00    -0.022 A 
ATOM     24  C   UNL     1      27.825  19.747  25.186  0.00  0.00    -0.004 A 
ATOM     25  C   UNL     1      27.235  19.206  24.102  0.00  0.00    -0.000 A 
BRANCH  23  26
ATOM     26  C   UNL     1      29.915  20.171  26.646  0.00  0.00    +0.025 C 
ATOM     27  C   UNL     1      31.203  20.851  26.288  0.00  0.00    +0.022 C 
ATOM     28  C   UNL     1      31.686  21.548  27.558  0.00  0.00    +0.072 C 
ATOM     29  N   UNL     1      32.104  20.557  28.592  0.00  0.00    -0.271 NA
ATOM     30  C   UNL     1      33.302  19.796  28.158  0.00  0.00    +0.090 C 
ATOM     31  C   UNL     1      30.972  19.677  28.972  0.00  0.00    +0.072 C 
ATOM     32  C   UNL     1      30.123  19.165  27.790  0.00  0.00    +0.022 C 
ENDBRANCH  23  26
ENDBRANCH   4  20
TORSDOF 6
ENDMDL
