MODEL 1
REMARK VINA RESULT:      -7.8      0.000      0.000
REMARK  Name = 5OY6_B4E.pdb
REMARK  0 active torsions:
REMARK  status: ('A' for Active; 'I' for Inactive)
REMARK                            x       y       z     vdW  Elec       q    Type
REMARK                         _______ _______ _______ _____ _____    ______ ____
ROOT
ATOM      1 CL   UNL     1      18.260  19.917  14.041  0.00  0.00    -0.082 Cl
ATOM      2  C   UNL     1      17.291  21.171  14.786  0.00  0.00    +0.061 A 
ATOM      3  C   UNL     1      17.568  21.514  16.099  0.00  0.00    +0.012 A 
ATOM      4  C   UNL     1      16.823  22.497  16.737  0.00  0.00    +0.008 A 
ATOM      5  C   UNL     1      17.123  22.829  18.061  0.00  0.00    +0.057 A 
ATOM      6  C   UNL     1      16.216  23.290  19.050  0.00  0.00    +0.167 A 
ATOM      7  N   UNL     1      14.858  23.522  18.975  0.00  0.00    -0.210 NA
ATOM      8  C   UNL     1      14.208  23.964  20.066  0.00  0.00    +0.151 A 
ATOM      9  N   UNL     1      12.804  24.204  20.000  0.00  0.00    -0.218 NA
ATOM     10  C   UNL     1      12.051  23.691  18.903  0.00  0.00    +0.146 C 
ATOM     11  C   UNL     1      12.271  24.593  17.713  0.00  0.00    +0.166 C 
ATOM     12  O   UNL     1      12.378  23.739  16.576  0.00  0.00    -0.348 OA
ATOM     13  C   UNL     1      12.719  24.406  15.360  0.00  0.00    +0.189 C 
ATOM     14  C   UNL     1      13.148  23.298  14.433  0.00  0.00    +0.237 C 
ATOM     15  O   UNL     1      14.487  23.502  14.025  0.00  0.00    -0.473 OA
ATOM     16  C   UNL     1      15.511  22.811  14.730  0.00  0.00    +0.140 A 
ATOM     17  C   UNL     1      14.908  24.184  21.263  0.00  0.00    +0.057 A 
ATOM     18  C   UNL     1      16.277  23.946  21.307  0.00  0.00    +0.105 A 
ATOM     19  N   UNL     1      16.893  23.489  20.170  0.00  0.00    -0.211 N 
ATOM     20  N   UNL     1      18.229  23.201  19.962  0.00  0.00    -0.162 NA
ATOM     21  C   UNL     1      18.372  22.799  18.679  0.00  0.00    +0.124 A 
ATOM     22  C   UNL     1      15.794  23.151  16.048  0.00  0.00    +0.037 A 
ATOM     23  C   UNL     1      16.266  21.819  14.097  0.00  0.00    +0.048 A 
ENDROOT
TORSDOF 0
ENDMDL
MODEL 2
REMARK VINA RESULT:      -7.1      8.577      9.643
REMARK  Name = 5OY6_B4E.pdb
REMARK  0 active torsions:
REMARK  status: ('A' for Active; 'I' for Inactive)
REMARK                            x       y       z     vdW  Elec       q    Type
REMARK                         _______ _______ _______ _____ _____    ______ ____
ROOT
ATOM      1 CL   UNL     1       6.847  19.097  13.403  0.00  0.00    -0.082 Cl
ATOM      2  C   UNL     1       6.820  18.981  15.150  0.00  0.00    +0.061 A 
ATOM      3  C   UNL     1       6.791  20.157  15.880  0.00  0.00    +0.012 A 
ATOM      4  C   UNL     1       6.776  20.120  17.268  0.00  0.00    +0.008 A 
ATOM      5  C   UNL     1       6.743  21.319  17.983  0.00  0.00    +0.057 A 
ATOM      6  C   UNL     1       7.303  21.563  19.264  0.00  0.00    +0.167 A 
ATOM      7  N   UNL     1       8.000  20.723  20.107  0.00  0.00    -0.210 NA
ATOM      8  C   UNL     1       8.437  21.195  21.288  0.00  0.00    +0.151 A 
ATOM      9  N   UNL     1       9.161  20.335  22.165  0.00  0.00    -0.218 NA
ATOM     10  C   UNL     1       9.684  19.102  21.673  0.00  0.00    +0.146 C 
ATOM     11  C   UNL     1       8.556  18.101  21.607  0.00  0.00    +0.166 C 
ATOM     12  O   UNL     1       8.746  17.360  20.403  0.00  0.00    -0.348 OA
ATOM     13  C   UNL     1       7.697  16.441  20.098  0.00  0.00    +0.189 C 
ATOM     14  C   UNL     1       7.918  16.089  18.649  0.00  0.00    +0.237 C 
ATOM     15  O   UNL     1       6.784  16.453  17.887  0.00  0.00    -0.473 OA
ATOM     16  C   UNL     1       6.812  17.702  17.206  0.00  0.00    +0.140 A 
ATOM     17  C   UNL     1       8.184  22.527  21.652  0.00  0.00    +0.057 A 
ATOM     18  C   UNL     1       7.475  23.349  20.784  0.00  0.00    +0.105 A 
ATOM     19  N   UNL     1       7.056  22.823  19.589  0.00  0.00    -0.211 N 
ATOM     20  N   UNL     1       6.329  23.428  18.581  0.00  0.00    -0.162 NA
ATOM     21  C   UNL     1       6.136  22.515  17.602  0.00  0.00    +0.124 A 
ATOM     22  C   UNL     1       6.782  18.886  17.933  0.00  0.00    +0.037 A 
ATOM     23  C   UNL     1       6.828  17.751  15.808  0.00  0.00    +0.048 A 
ENDROOT
TORSDOF 0
ENDMDL
MODEL 3
REMARK VINA RESULT:      -7.1      3.537      6.412
REMARK  Name = 5OY6_B4E.pdb
REMARK  0 active torsions:
REMARK  status: ('A' for Active; 'I' for Inactive)
REMARK                            x       y       z     vdW  Elec       q    Type
REMARK                         _______ _______ _______ _____ _____    ______ ____
ROOT
ATOM      1 CL   UNL     1       8.929  22.680  19.307  0.00  0.00    -0.082 Cl
ATOM      2  C   UNL     1      10.590  23.113  19.651  0.00  0.00    +0.061 A 
ATOM      3  C   UNL     1      11.465  23.237  18.585  0.00  0.00    +0.012 A 
ATOM      4  C   UNL     1      12.795  23.571  18.805  0.00  0.00    +0.008 A 
ATOM      5  C   UNL     1      13.658  23.695  17.713  0.00  0.00    +0.057 A 
ATOM      6  C   UNL     1      15.051  23.429  17.695  0.00  0.00    +0.167 A 
ATOM      7  N   UNL     1      15.889  22.995  18.701  0.00  0.00    -0.210 NA
ATOM      8  C   UNL     1      17.195  22.812  18.433  0.00  0.00    +0.151 A 
ATOM      9  N   UNL     1      18.068  22.361  19.465  0.00  0.00    -0.218 NA
ATOM     10  C   UNL     1      17.523  21.815  20.664  0.00  0.00    +0.146 C 
ATOM     11  C   UNL     1      17.063  22.957  21.539  0.00  0.00    +0.166 C 
ATOM     12  O   UNL     1      15.832  22.541  22.128  0.00  0.00    -0.348 OA
ATOM     13  C   UNL     1      15.171  23.547  22.897  0.00  0.00    +0.189 C 
ATOM     14  C   UNL     1      13.769  23.022  23.072  0.00  0.00    +0.237 C 
ATOM     15  O   UNL     1      12.841  23.927  22.506  0.00  0.00    -0.473 OA
ATOM     16  C   UNL     1      12.379  23.669  21.186  0.00  0.00    +0.140 A 
ATOM     17  C   UNL     1      17.691  23.060  17.143  0.00  0.00    +0.057 A 
ATOM     18  C   UNL     1      16.823  23.501  16.151  0.00  0.00    +0.105 A 
ATOM     19  N   UNL     1      15.501  23.666  16.472  0.00  0.00    -0.211 N 
ATOM     20  N   UNL     1      14.461  24.106  15.673  0.00  0.00    -0.162 NA
ATOM     21  C   UNL     1      13.338  24.125  16.426  0.00  0.00    +0.124 A 
ATOM     22  C   UNL     1      13.251  23.793  20.111  0.00  0.00    +0.037 A 
ATOM     23  C   UNL     1      11.042  23.330  20.953  0.00  0.00    +0.048 A 
ENDROOT
TORSDOF 0
ENDMDL
MODEL 4
REMARK VINA RESULT:      -6.9      1.888      2.478
REMARK  Name = 5OY6_B4E.pdb
REMARK  0 active torsions:
REMARK  status: ('A' for Active; 'I' for Inactive)
REMARK                            x       y       z     vdW  Elec       q    Type
REMARK                         _______ _______ _______ _____ _____    ______ ____
ROOT
ATOM      1 CL   UNL     1      17.637  20.541  15.028  0.00  0.00    -0.082 Cl
ATOM      2  C   UNL     1      16.357  21.601  15.577  0.00  0.00    +0.061 A 
ATOM      3  C   UNL     1      16.032  21.586  16.923  0.00  0.00    +0.012 A 
ATOM      4  C   UNL     1      15.018  22.403  17.408  0.00  0.00    +0.008 A 
ATOM      5  C   UNL     1      14.711  22.374  18.770  0.00  0.00    +0.057 A 
ATOM      6  C   UNL     1      13.442  22.604  19.362  0.00  0.00    +0.167 A 
ATOM      7  N   UNL     1      12.227  22.901  18.779  0.00  0.00    -0.210 NA
ATOM      8  C   UNL     1      11.149  23.076  19.564  0.00  0.00    +0.151 A 
ATOM      9  N   UNL     1       9.889  23.380  18.972  0.00  0.00    -0.218 NA
ATOM     10  C   UNL     1       9.704  23.195  17.570  0.00  0.00    +0.146 C 
ATOM     11  C   UNL     1      10.336  24.361  16.849  0.00  0.00    +0.166 C 
ATOM     12  O   UNL     1      10.972  23.822  15.692  0.00  0.00    -0.348 OA
ATOM     13  C   UNL     1      11.741  24.763  14.942  0.00  0.00    +0.189 C 
ATOM     14  C   UNL     1      12.599  23.912  14.041  0.00  0.00    +0.237 C 
ATOM     15  O   UNL     1      13.966  24.160  14.304  0.00  0.00    -0.473 OA
ATOM     16  C   UNL     1      14.649  23.271  15.181  0.00  0.00    +0.140 A 
ATOM     17  C   UNL     1      11.265  22.954  20.958  0.00  0.00    +0.057 A 
ATOM     18  C   UNL     1      12.503  22.659  21.517  0.00  0.00    +0.105 A 
ATOM     19  N   UNL     1      13.570  22.483  20.674  0.00  0.00    -0.211 N 
ATOM     20  N   UNL     1      14.888  22.204  20.987  0.00  0.00    -0.162 NA
ATOM     21  C   UNL     1      15.584  22.137  19.830  0.00  0.00    +0.124 A 
ATOM     22  C   UNL     1      14.328  23.252  16.533  0.00  0.00    +0.037 A 
ATOM     23  C   UNL     1      15.670  22.444  14.703  0.00  0.00    +0.048 A 
ENDROOT
TORSDOF 0
ENDMDL
MODEL 5
REMARK VINA RESULT:      -6.8     10.595     13.001
REMARK  Name = 5OY6_B4E.pdb
REMARK  0 active torsions:
REMARK  status: ('A' for Active; 'I' for Inactive)
REMARK                            x       y       z     vdW  Elec       q    Type
REMARK                         _______ _______ _______ _____ _____    ______ ____
ROOT
ATOM      1 CL   UNL     1       6.836  21.055  17.556  0.00  0.00    -0.082 Cl
ATOM      2  C   UNL     1       6.694  20.276  15.994  0.00  0.00    +0.061 A 
ATOM      3  C   UNL     1       6.286  21.046  14.918  0.00  0.00    +0.012 A 
ATOM      4  C   UNL     1       6.150  20.474  13.659  0.00  0.00    +0.008 A 
ATOM      5  C   UNL     1       5.741  21.271  12.588  0.00  0.00    +0.057 A 
ATOM      6  C   UNL     1       4.990  20.859  11.457  0.00  0.00    +0.167 A 
ATOM      7  N   UNL     1       4.483  19.618  11.129  0.00  0.00    -0.210 NA
ATOM      8  C   UNL     1       3.790  19.476   9.984  0.00  0.00    +0.151 A 
ATOM      9  N   UNL     1       3.259  18.200   9.637  0.00  0.00    -0.218 NA
ATOM     10  C   UNL     1       3.189  17.172  10.623  0.00  0.00    +0.146 C 
ATOM     11  C   UNL     1       4.564  16.568  10.779  0.00  0.00    +0.166 C 
ATOM     12  O   UNL     1       4.744  16.334  12.174  0.00  0.00    -0.348 OA
ATOM     13  C   UNL     1       6.048  15.878  12.538  0.00  0.00    +0.189 C 
ATOM     14  C   UNL     1       6.112  16.078  14.030  0.00  0.00    +0.237 C 
ATOM     15  O   UNL     1       7.166  16.964  14.353  0.00  0.00    -0.473 OA
ATOM     16  C   UNL     1       6.845  18.336  14.553  0.00  0.00    +0.140 A 
ATOM     17  C   UNL     1       3.590  20.580   9.140  0.00  0.00    +0.057 A 
ATOM     18  C   UNL     1       4.117  21.816   9.495  0.00  0.00    +0.105 A 
ATOM     19  N   UNL     1       4.809  21.912  10.674  0.00  0.00    -0.211 N 
ATOM     20  N   UNL     1       5.435  23.013  11.228  0.00  0.00    -0.162 NA
ATOM     21  C   UNL     1       6.004  22.627  12.393  0.00  0.00    +0.124 A 
ATOM     22  C   UNL     1       6.436  19.115  13.476  0.00  0.00    +0.037 A 
ATOM     23  C   UNL     1       6.977  18.922  15.816  0.00  0.00    +0.048 A 
ENDROOT
TORSDOF 0
ENDMDL
MODEL 6
REMARK VINA RESULT:      -6.8     10.063     11.670
REMARK  Name = 5OY6_B4E.pdb
REMARK  0 active torsions:
REMARK  status: ('A' for Active; 'I' for Inactive)
REMARK                            x       y       z     vdW  Elec       q    Type
REMARK                         _______ _______ _______ _____ _____    ______ ____
ROOT
ATOM      1 CL   UNL     1       4.023  15.682   9.731  0.00  0.00    -0.082 Cl
ATOM      2  C   UNL     1       4.658  17.244  10.204  0.00  0.00    +0.061 A 
ATOM      3  C   UNL     1       5.205  17.367  11.470  0.00  0.00    +0.012 A 
ATOM      4  C   UNL     1       5.716  18.587  11.897  0.00  0.00    +0.008 A 
ATOM      5  C   UNL     1       6.266  18.686  13.177  0.00  0.00    +0.057 A 
ATOM      6  C   UNL     1       6.277  19.833  14.012  0.00  0.00    +0.167 A 
ATOM      7  N   UNL     1       5.771  21.098  13.796  0.00  0.00    -0.210 NA
ATOM      8  C   UNL     1       5.907  22.031  14.756  0.00  0.00    +0.151 A 
ATOM      9  N   UNL     1       5.384  23.340  14.544  0.00  0.00    -0.218 NA
ATOM     10  C   UNL     1       4.466  23.570  13.477  0.00  0.00    +0.146 C 
ATOM     11  C   UNL     1       5.247  23.662  12.189  0.00  0.00    +0.166 C 
ATOM     12  O   UNL     1       4.476  22.980  11.202  0.00  0.00    -0.348 OA
ATOM     13  C   UNL     1       5.117  22.849   9.932  0.00  0.00    +0.189 C 
ATOM     14  C   UNL     1       4.313  21.795   9.214  0.00  0.00    +0.237 C 
ATOM     15  O   UNL     1       5.142  20.696   8.889  0.00  0.00    -0.473 OA
ATOM     16  C   UNL     1       5.138  19.576   9.767  0.00  0.00    +0.140 A 
ATOM     17  C   UNL     1       6.556  21.714  15.960  0.00  0.00    +0.057 A 
ATOM     18  C   UNL     1       7.060  20.432  16.147  0.00  0.00    +0.105 A 
ATOM     19  N   UNL     1       6.891  19.515  15.142  0.00  0.00    -0.211 N 
ATOM     20  N   UNL     1       7.314  18.200  15.085  0.00  0.00    -0.162 NA
ATOM     21  C   UNL     1       6.935  17.693  13.890  0.00  0.00    +0.124 A 
ATOM     22  C   UNL     1       5.686  19.693  11.039  0.00  0.00    +0.037 A 
ATOM     23  C   UNL     1       4.626  18.345   9.348  0.00  0.00    +0.048 A 
ENDROOT
TORSDOF 0
ENDMDL
MODEL 7
REMARK VINA RESULT:      -6.5      4.816      7.702
REMARK  Name = 5OY6_B4E.pdb
REMARK  0 active torsions:
REMARK  status: ('A' for Active; 'I' for Inactive)
REMARK                            x       y       z     vdW  Elec       q    Type
REMARK                         _______ _______ _______ _____ _____    ______ ____
ROOT
ATOM      1 CL   UNL     1       5.367  21.040  15.881  0.00  0.00    -0.082 Cl
ATOM      2  C   UNL     1       6.507  21.864  16.924  0.00  0.00    +0.061 A 
ATOM      3  C   UNL     1       7.670  22.357  16.356  0.00  0.00    +0.012 A 
ATOM      4  C   UNL     1       8.610  23.012  17.142  0.00  0.00    +0.008 A 
ATOM      5  C   UNL     1       9.774  23.504  16.546  0.00  0.00    +0.057 A 
ATOM      6  C   UNL     1      11.051  23.634  17.151  0.00  0.00    +0.167 A 
ATOM      7  N   UNL     1      11.467  23.323  18.429  0.00  0.00    -0.210 NA
ATOM      8  C   UNL     1      12.750  23.539  18.771  0.00  0.00    +0.151 A 
ATOM      9  N   UNL     1      13.192  23.218  20.088  0.00  0.00    -0.218 NA
ATOM     10  C   UNL     1      12.379  22.397  20.924  0.00  0.00    +0.146 C 
ATOM     11  C   UNL     1      11.271  23.248  21.493  0.00  0.00    +0.166 C 
ATOM     12  O   UNL     1      10.095  22.441  21.477  0.00  0.00    -0.348 OA
ATOM     13  C   UNL     1       8.900  23.121  21.863  0.00  0.00    +0.189 C 
ATOM     14  C   UNL     1       7.788  22.215  21.402  0.00  0.00    +0.237 C 
ATOM     15  O   UNL     1       6.965  22.896  20.475  0.00  0.00    -0.473 OA
ATOM     16  C   UNL     1       7.211  22.690  19.088  0.00  0.00    +0.140 A 
ATOM     17  C   UNL     1      13.648  24.075  17.834  0.00  0.00    +0.057 A 
ATOM     18  C   UNL     1      13.199  24.383  16.555  0.00  0.00    +0.105 A 
ATOM     19  N   UNL     1      11.884  24.138  16.254  0.00  0.00    -0.211 N 
ATOM     20  N   UNL     1      11.205  24.373  15.072  0.00  0.00    -0.162 NA
ATOM     21  C   UNL     1       9.920  23.989  15.248  0.00  0.00    +0.124 A 
ATOM     22  C   UNL     1       8.376  23.183  18.512  0.00  0.00    +0.037 A 
ATOM     23  C   UNL     1       6.273  22.031  18.289  0.00  0.00    +0.048 A 
ENDROOT
TORSDOF 0
ENDMDL
MODEL 8
REMARK VINA RESULT:      -6.3     11.386     13.838
REMARK  Name = 5OY6_B4E.pdb
REMARK  0 active torsions:
REMARK  status: ('A' for Active; 'I' for Inactive)
REMARK                            x       y       z     vdW  Elec       q    Type
REMARK                         _______ _______ _______ _____ _____    ______ ____
ROOT
ATOM      1 CL   UNL     1       5.666  22.937  14.819  0.00  0.00    -0.082 Cl
ATOM      2  C   UNL     1       5.933  21.399  14.024  0.00  0.00    +0.061 A 
ATOM      3  C   UNL     1       5.578  21.286  12.690  0.00  0.00    +0.012 A 
ATOM      4  C   UNL     1       5.763  20.085  12.016  0.00  0.00    +0.008 A 
ATOM      5  C   UNL     1       5.402  19.996  10.670  0.00  0.00    +0.057 A 
ATOM      6  C   UNL     1       4.939  18.841   9.987  0.00  0.00    +0.167 A 
ATOM      7  N   UNL     1       4.728  17.558  10.448  0.00  0.00    -0.210 NA
ATOM      8  C   UNL     1       4.277  16.622   9.594  0.00  0.00    +0.151 A 
ATOM      9  N   UNL     1       4.053  15.294  10.061  0.00  0.00    -0.218 NA
ATOM     10  C   UNL     1       4.006  15.036  11.463  0.00  0.00    +0.146 C 
ATOM     11  C   UNL     1       5.421  14.991  11.985  0.00  0.00    +0.166 C 
ATOM     12  O   UNL     1       5.404  15.650  13.250  0.00  0.00    -0.348 OA
ATOM     13  C   UNL     1       6.689  15.822  13.849  0.00  0.00    +0.189 C 
ATOM     14  C   UNL     1       6.463  16.848  14.930  0.00  0.00    +0.237 C 
ATOM     15  O   UNL     1       7.268  17.986  14.691  0.00  0.00    -0.473 OA
ATOM     16  C   UNL     1       6.675  19.094  14.026  0.00  0.00    +0.140 A 
ATOM     17  C   UNL     1       4.024  16.953   8.254  0.00  0.00    +0.057 A 
ATOM     18  C   UNL     1       4.250  18.254   7.817  0.00  0.00    +0.105 A 
ATOM     19  N   UNL     1       4.704  19.173   8.727  0.00  0.00    -0.211 N 
ATOM     20  N   UNL     1       5.017  20.506   8.533  0.00  0.00    -0.162 NA
ATOM     21  C   UNL     1       5.442  21.010   9.714  0.00  0.00    +0.124 A 
ATOM     22  C   UNL     1       6.318  18.987  12.686  0.00  0.00    +0.037 A 
ATOM     23  C   UNL     1       6.483  20.307  14.695  0.00  0.00    +0.048 A 
ENDROOT
TORSDOF 0
ENDMDL
MODEL 9
REMARK VINA RESULT:      -6.3      9.729     11.585
REMARK  Name = 5OY6_B4E.pdb
REMARK  0 active torsions:
REMARK  status: ('A' for Active; 'I' for Inactive)
REMARK                            x       y       z     vdW  Elec       q    Type
REMARK                         _______ _______ _______ _____ _____    ______ ____
ROOT
ATOM      1 CL   UNL     1       2.325  20.825   8.374  0.00  0.00    -0.082 Cl
ATOM      2  C   UNL     1       3.591  21.344   9.467  0.00  0.00    +0.061 A 
ATOM      3  C   UNL     1       4.112  20.412  10.349  0.00  0.00    +0.012 A 
ATOM      4  C   UNL     1       5.113  20.776  11.242  0.00  0.00    +0.008 A 
ATOM      5  C   UNL     1       5.626  19.817  12.119  0.00  0.00    +0.057 A 
ATOM      6  C   UNL     1       6.141  20.044  13.421  0.00  0.00    +0.167 A 
ATOM      7  N   UNL     1       6.266  21.216  14.138  0.00  0.00    -0.210 NA
ATOM      8  C   UNL     1       6.794  21.174  15.375  0.00  0.00    +0.151 A 
ATOM      9  N   UNL     1       6.924  22.378  16.126  0.00  0.00    -0.218 NA
ATOM     10  C   UNL     1       6.227  23.550  15.708  0.00  0.00    +0.146 C 
ATOM     11  C   UNL     1       6.988  24.171  14.562  0.00  0.00    +0.166 C 
ATOM     12  O   UNL     1       6.009  24.625  13.629  0.00  0.00    -0.348 OA
ATOM     13  C   UNL     1       6.543  25.133  12.405  0.00  0.00    +0.189 C 
ATOM     14  C   UNL     1       5.361  25.174  11.471  0.00  0.00    +0.237 C 
ATOM     15  O   UNL     1       5.607  24.351  10.347  0.00  0.00    -0.473 OA
ATOM     16  C   UNL     1       5.082  23.028  10.362  0.00  0.00    +0.140 A 
ATOM     17  C   UNL     1       7.208  19.949  15.923  0.00  0.00    +0.057 A 
ATOM     18  C   UNL     1       7.074  18.786  15.175  0.00  0.00    +0.105 A 
ATOM     19  N   UNL     1       6.525  18.880  13.922  0.00  0.00    -0.211 N 
ATOM     20  N   UNL     1       6.307  17.881  12.991  0.00  0.00    -0.162 NA
ATOM     21  C   UNL     1       5.760  18.448  11.892  0.00  0.00    +0.124 A 
ATOM     22  C   UNL     1       5.602  22.088  11.244  0.00  0.00    +0.037 A 
ATOM     23  C   UNL     1       4.074  22.652   9.469  0.00  0.00    +0.048 A 
ENDROOT
TORSDOF 0
ENDMDL
