MODEL 1
REMARK VINA RESULT:      -7.9      0.000      0.000
REMARK  Name = 4C02_TAK.pdb
REMARK  3 active torsions:
REMARK  status: ('A' for Active; 'I' for Inactive)
REMARK    1  A    between atoms: _1  and  _7
REMARK    2  A    between atoms: _12  and  _13
REMARK    3  A    between atoms: _18  and  _19
REMARK                            x       y       z     vdW  Elec       q    Type
REMARK                         _______ _______ _______ _____ _____    ______ ____
ROOT
ATOM      1  C   UNL     1      15.262  22.849  21.966  0.00  0.00    +0.038 A 
ATOM      2  C   UNL     1      14.606  22.723  20.729  0.00  0.00    +0.102 A 
ATOM      3  N   UNL     1      15.278  22.762  19.558  0.00  0.00    -0.225 NA
ATOM      4  C   UNL     1      16.655  22.960  19.542  0.00  0.00    +0.165 A 
ATOM      5  C   UNL     1      17.586  23.033  18.472  0.00  0.00    +0.057 A 
ATOM      6  C   UNL     1      18.808  23.243  19.107  0.00  0.00    +0.124 A 
ATOM      7  N   UNL     1      18.639  23.287  20.457  0.00  0.00    -0.162 NA
ATOM      8  N   UNL     1      17.293  23.106  20.680  0.00  0.00    -0.211 N 
ATOM      9  C   UNL     1      16.643  23.040  21.911  0.00  0.00    +0.104 A 
ENDROOT
BRANCH   1  13
ATOM     10  C   UNL     1      13.169  22.657  25.717  0.00  0.00    +0.139 A 
ATOM     11  C   UNL     1      14.522  22.862  25.675  0.00  0.00    +0.037 A 
ATOM     12  C   UNL     1      15.216  22.920  24.456  0.00  0.00    +0.003 A 
ATOM     13  C   UNL     1      14.550  22.766  23.236  0.00  0.00    +0.003 A 
ATOM     14  C   UNL     1      13.168  22.590  23.272  0.00  0.00    +0.003 A 
ATOM     15  C   UNL     1      12.486  22.530  24.484  0.00  0.00    +0.037 A 
BRANCH  10  16
ATOM     16  O   UNL     1      12.519  22.602  27.004  0.00  0.00    -0.471 OA
ATOM     17  C   UNL     1      11.453  21.701  27.187  0.00  0.00    +0.252 C 
ENDBRANCH  10  16
ENDBRANCH   1  13
BRANCH   5  18
ATOM     18  C   UNL     1      17.406  22.943  17.088  0.00  0.00    +0.008 A 
ATOM     19  C   UNL     1      17.441  21.756  16.383  0.00  0.00    +0.021 A 
ATOM     20  C   UNL     1      17.240  21.756  15.009  0.00  0.00    +0.099 A 
ATOM     21  N   UNL     1      16.991  22.901  14.363  0.00  0.00    -0.242 NA
ATOM     22  C   UNL     1      16.930  24.072  15.001  0.00  0.00    +0.099 A 
ATOM     23  C   UNL     1      17.134  24.099  16.371  0.00  0.00    +0.021 A 
ENDBRANCH   5  18
TORSDOF 3
ENDMDL
MODEL 2
REMARK VINA RESULT:      -7.8      5.179     10.199
REMARK  Name = 4C02_TAK.pdb
REMARK  3 active torsions:
REMARK  status: ('A' for Active; 'I' for Inactive)
REMARK    1  A    between atoms: _1  and  _7
REMARK    2  A    between atoms: _12  and  _13
REMARK    3  A    between atoms: _18  and  _19
REMARK                            x       y       z     vdW  Elec       q    Type
REMARK                         _______ _______ _______ _____ _____    ______ ____
ROOT
ATOM      1  C   UNL     1      16.871  25.290  13.892  0.00  0.00    +0.038 A 
ATOM      2  C   UNL     1      17.105  25.846  15.162  0.00  0.00    +0.102 A 
ATOM      3  N   UNL     1      17.309  25.075  16.252  0.00  0.00    -0.225 NA
ATOM      4  C   UNL     1      17.262  23.688  16.152  0.00  0.00    +0.165 A 
ATOM      5  C   UNL     1      17.444  22.665  17.121  0.00  0.00    +0.057 A 
ATOM      6  C   UNL     1      17.275  21.487  16.397  0.00  0.00    +0.124 A 
ATOM      7  N   UNL     1      17.017  21.766  15.090  0.00  0.00    -0.162 NA
ATOM      8  N   UNL     1      17.020  23.139  14.985  0.00  0.00    -0.211 N 
ATOM      9  C   UNL     1      16.836  23.896  13.830  0.00  0.00    +0.104 A 
ENDROOT
BRANCH   1  13
ATOM     10  C   UNL     1      16.327  27.763  10.417  0.00  0.00    +0.139 A 
ATOM     11  C   UNL     1      15.256  27.353  11.164  0.00  0.00    +0.037 A 
ATOM     12  C   UNL     1      15.422  26.540  12.297  0.00  0.00    +0.003 A 
ATOM     13  C   UNL     1      16.691  26.115  12.703  0.00  0.00    +0.003 A 
ATOM     14  C   UNL     1      17.787  26.556  11.965  0.00  0.00    +0.003 A 
ATOM     15  C   UNL     1      17.616  27.359  10.840  0.00  0.00    +0.037 A 
BRANCH  10  16
ATOM     16  O   UNL     1      16.086  28.591   9.261  0.00  0.00    -0.471 OA
ATOM     17  C   UNL     1      15.070  29.564   9.324  0.00  0.00    +0.252 C 
ENDBRANCH  10  16
ENDBRANCH   1  13
BRANCH   5  18
ATOM     18  C   UNL     1      17.716  22.733  18.491  0.00  0.00    +0.008 A 
ATOM     19  C   UNL     1      18.900  23.211  19.018  0.00  0.00    +0.021 A 
ATOM     20  C   UNL     1      19.083  23.255  20.393  0.00  0.00    +0.099 A 
ATOM     21  N   UNL     1      18.106  22.854  21.217  0.00  0.00    -0.242 NA
ATOM     22  C   UNL     1      16.938  22.401  20.759  0.00  0.00    +0.099 A 
ATOM     23  C   UNL     1      16.734  22.341  19.389  0.00  0.00    +0.021 A 
ENDBRANCH   5  18
TORSDOF 3
ENDMDL
MODEL 3
REMARK VINA RESULT:      -7.3      5.149     10.194
REMARK  Name = 4C02_TAK.pdb
REMARK  3 active torsions:
REMARK  status: ('A' for Active; 'I' for Inactive)
REMARK    1  A    between atoms: _1  and  _7
REMARK    2  A    between atoms: _12  and  _13
REMARK    3  A    between atoms: _18  and  _19
REMARK                            x       y       z     vdW  Elec       q    Type
REMARK                         _______ _______ _______ _____ _____    ______ ____
ROOT
ATOM      1  C   UNL     1      16.222  25.225  13.822  0.00  0.00    +0.038 A 
ATOM      2  C   UNL     1      15.463  25.533  14.965  0.00  0.00    +0.102 A 
ATOM      3  N   UNL     1      15.434  24.718  16.042  0.00  0.00    -0.225 NA
ATOM      4  C   UNL     1      16.141  23.520  16.038  0.00  0.00    +0.165 A 
ATOM      5  C   UNL     1      16.285  22.504  17.022  0.00  0.00    +0.057 A 
ATOM      6  C   UNL     1      17.120  21.569  16.416  0.00  0.00    +0.124 A 
ATOM      7  N   UNL     1      17.466  21.982  15.165  0.00  0.00    -0.162 NA
ATOM      8  N   UNL     1      16.839  23.193  14.975  0.00  0.00    -0.211 N 
ATOM      9  C   UNL     1      16.922  24.019  13.856  0.00  0.00    +0.104 A 
ENDROOT
BRANCH   1  13
ATOM     10  C   UNL     1      16.440  27.820  10.400  0.00  0.00    +0.139 A 
ATOM     11  C   UNL     1      17.575  27.299  10.962  0.00  0.00    +0.037 A 
ATOM     12  C   UNL     1      17.514  26.455  12.083  0.00  0.00    +0.003 A 
ATOM     13  C   UNL     1      16.291  26.119  12.671  0.00  0.00    +0.003 A 
ATOM     14  C   UNL     1      15.132  26.621  12.084  0.00  0.00    +0.003 A 
ATOM     15  C   UNL     1      15.198  27.460  10.974  0.00  0.00    +0.037 A 
BRANCH  10  16
ATOM     16  O   UNL     1      16.574  28.685   9.254  0.00  0.00    -0.471 OA
ATOM     17  C   UNL     1      15.788  29.852   9.188  0.00  0.00    +0.252 C 
ENDBRANCH  10  16
ENDBRANCH   1  13
BRANCH   5  18
ATOM     18  C   UNL     1      15.743  22.385  18.305  0.00  0.00    +0.008 A 
ATOM     19  C   UNL     1      14.433  22.025  18.558  0.00  0.00    +0.021 A 
ATOM     20  C   UNL     1      13.980  21.919  19.865  0.00  0.00    +0.099 A 
ATOM     21  N   UNL     1      14.812  22.145  20.889  0.00  0.00    -0.242 NA
ATOM     22  C   UNL     1      16.090  22.478  20.698  0.00  0.00    +0.099 A 
ATOM     23  C   UNL     1      16.565  22.597  19.402  0.00  0.00    +0.021 A 
ENDBRANCH   5  18
TORSDOF 3
ENDMDL
MODEL 4
REMARK VINA RESULT:      -7.1      5.827      8.526
REMARK  Name = 4C02_TAK.pdb
REMARK  3 active torsions:
REMARK  status: ('A' for Active; 'I' for Inactive)
REMARK    1  A    between atoms: _1  and  _7
REMARK    2  A    between atoms: _12  and  _13
REMARK    3  A    between atoms: _18  and  _19
REMARK                            x       y       z     vdW  Elec       q    Type
REMARK                         _______ _______ _______ _____ _____    ______ ____
ROOT
ATOM      1  C   UNL     1      17.392  25.636  15.361  0.00  0.00    +0.038 A 
ATOM      2  C   UNL     1      18.220  26.448  14.566  0.00  0.00    +0.102 A 
ATOM      3  N   UNL     1      17.758  27.069  13.459  0.00  0.00    -0.225 NA
ATOM      4  C   UNL     1      16.439  26.895  13.052  0.00  0.00    +0.165 A 
ATOM      5  C   UNL     1      15.711  27.427  11.953  0.00  0.00    +0.057 A 
ATOM      6  C   UNL     1      14.440  26.878  12.099  0.00  0.00    +0.124 A 
ATOM      7  N   UNL     1      14.391  26.080  13.201  0.00  0.00    -0.162 NA
ATOM      8  N   UNL     1      15.648  26.122  13.760  0.00  0.00    -0.211 N 
ATOM      9  C   UNL     1      16.075  25.489  14.926  0.00  0.00    +0.104 A 
ENDROOT
BRANCH   1  13
ATOM     10  C   UNL     1      18.834  23.715  18.927  0.00  0.00    +0.139 A 
ATOM     11  C   UNL     1      17.962  23.076  18.087  0.00  0.00    +0.037 A 
ATOM     12  C   UNL     1      17.481  23.697  16.923  0.00  0.00    +0.003 A 
ATOM     13  C   UNL     1      17.871  24.995  16.580  0.00  0.00    +0.003 A 
ATOM     14  C   UNL     1      18.784  25.637  17.416  0.00  0.00    +0.003 A 
ATOM     15  C   UNL     1      19.255  25.018  18.570  0.00  0.00    +0.037 A 
BRANCH  10  16
ATOM     16  O   UNL     1      19.285  23.022  20.110  0.00  0.00    -0.471 OA
ATOM     17  C   UNL     1      19.410  21.620  20.069  0.00  0.00    +0.252 C 
ENDBRANCH  10  16
ENDBRANCH   1  13
BRANCH   5  18
ATOM     18  C   UNL     1      16.102  28.286  10.922  0.00  0.00    +0.008 A 
ATOM     19  C   UNL     1      17.374  28.315  10.384  0.00  0.00    +0.021 A 
ATOM     20  C   UNL     1      17.675  29.194   9.352  0.00  0.00    +0.099 A 
ATOM     21  N   UNL     1      16.730  30.003   8.858  0.00  0.00    -0.242 NA
ATOM     22  C   UNL     1      15.482  30.002   9.331  0.00  0.00    +0.099 A 
ATOM     23  C   UNL     1      15.159  29.138  10.366  0.00  0.00    +0.021 A 
ENDBRANCH   5  18
TORSDOF 3
ENDMDL
MODEL 5
REMARK VINA RESULT:      -7.0      6.305     10.322
REMARK  Name = 4C02_TAK.pdb
REMARK  3 active torsions:
REMARK  status: ('A' for Active; 'I' for Inactive)
REMARK    1  A    between atoms: _1  and  _7
REMARK    2  A    between atoms: _12  and  _13
REMARK    3  A    between atoms: _18  and  _19
REMARK                            x       y       z     vdW  Elec       q    Type
REMARK                         _______ _______ _______ _____ _____    ______ ____
ROOT
ATOM      1  C   UNL     1      17.003  26.085  13.215  0.00  0.00    +0.038 A 
ATOM      2  C   UNL     1      18.025  27.005  12.924  0.00  0.00    +0.102 A 
ATOM      3  N   UNL     1      17.906  27.910  11.927  0.00  0.00    -0.225 NA
ATOM      4  C   UNL     1      16.766  27.936  11.131  0.00  0.00    +0.165 A 
ATOM      5  C   UNL     1      16.391  28.771  10.044  0.00  0.00    +0.057 A 
ATOM      6  C   UNL     1      15.134  28.296   9.677  0.00  0.00    +0.124 A 
ATOM      7  N   UNL     1      14.767  27.258  10.478  0.00  0.00    -0.162 NA
ATOM      8  N   UNL     1      15.804  27.072  11.363  0.00  0.00    -0.211 N 
ATOM      9  C   UNL     1      15.872  26.144  12.400  0.00  0.00    +0.104 A 
ENDROOT
BRANCH   1  13
ATOM     10  C   UNL     1      17.349  23.259  16.437  0.00  0.00    +0.139 A 
ATOM     11  C   UNL     1      17.019  22.848  15.173  0.00  0.00    +0.037 A 
ATOM     12  C   UNL     1      16.898  23.764  14.116  0.00  0.00    +0.003 A 
ATOM     13  C   UNL     1      17.105  25.133  14.315  0.00  0.00    +0.003 A 
ATOM     14  C   UNL     1      17.472  25.551  15.593  0.00  0.00    +0.003 A 
ATOM     15  C   UNL     1      17.588  24.639  16.639  0.00  0.00    +0.037 A 
BRANCH  10  16
ATOM     16  O   UNL     1      17.451  22.267  17.480  0.00  0.00    -0.471 OA
ATOM     17  C   UNL     1      17.329  22.677  18.821  0.00  0.00    +0.252 C 
ENDBRANCH  10  16
ENDBRANCH   1  13
BRANCH   5  18
ATOM     18  C   UNL     1      17.064  29.826   9.421  0.00  0.00    +0.008 A 
ATOM     19  C   UNL     1      16.625  31.136   9.437  0.00  0.00    +0.021 A 
ATOM     20  C   UNL     1      17.362  32.125   8.801  0.00  0.00    +0.099 A 
ATOM     21  N   UNL     1      18.512  31.821   8.186  0.00  0.00    -0.242 NA
ATOM     22  C   UNL     1      18.988  30.575   8.158  0.00  0.00    +0.099 A 
ATOM     23  C   UNL     1      18.267  29.568   8.780  0.00  0.00    +0.021 A 
ENDBRANCH   5  18
TORSDOF 3
ENDMDL
MODEL 6
REMARK VINA RESULT:      -7.0      7.422     12.007
REMARK  Name = 4C02_TAK.pdb
REMARK  3 active torsions:
REMARK  status: ('A' for Active; 'I' for Inactive)
REMARK    1  A    between atoms: _1  and  _7
REMARK    2  A    between atoms: _12  and  _13
REMARK    3  A    between atoms: _18  and  _19
REMARK                            x       y       z     vdW  Elec       q    Type
REMARK                         _______ _______ _______ _____ _____    ______ ____
ROOT
ATOM      1  C   UNL     1      16.538  27.390  11.619  0.00  0.00    +0.038 A 
ATOM      2  C   UNL     1      17.603  26.550  11.992  0.00  0.00    +0.102 A 
ATOM      3  N   UNL     1      17.420  25.483  12.799  0.00  0.00    -0.225 NA
ATOM      4  C   UNL     1      16.161  25.197  13.316  0.00  0.00    +0.165 A 
ATOM      5  C   UNL     1      15.701  24.155  14.165  0.00  0.00    +0.057 A 
ATOM      6  C   UNL     1      14.343  24.420  14.314  0.00  0.00    +0.124 A 
ATOM      7  N   UNL     1      13.996  25.532  13.609  0.00  0.00    -0.162 NA
ATOM      8  N   UNL     1      15.151  25.978  13.006  0.00  0.00    -0.211 N 
ATOM      9  C   UNL     1      15.289  27.070  12.152  0.00  0.00    +0.104 A 
ENDROOT
BRANCH   1  13
ATOM     10  C   UNL     1      17.100  30.691   8.922  0.00  0.00    +0.139 A 
ATOM     11  C   UNL     1      18.137  30.216   9.680  0.00  0.00    +0.037 A 
ATOM     12  C   UNL     1      17.962  29.143  10.568  0.00  0.00    +0.003 A 
ATOM     13  C   UNL     1      16.719  28.519  10.715  0.00  0.00    +0.003 A 
ATOM     14  C   UNL     1      15.669  28.978   9.922  0.00  0.00    +0.003 A 
ATOM     15  C   UNL     1      15.847  30.045   9.046  0.00  0.00    +0.037 A 
BRANCH  10  16
ATOM     16  O   UNL     1      17.347  31.801   8.035  0.00  0.00    -0.471 OA
ATOM     17  C   UNL     1      17.705  33.045   8.587  0.00  0.00    +0.252 C 
ENDBRANCH  10  16
ENDBRANCH   1  13
BRANCH   5  18
ATOM     18  C   UNL     1      16.382  23.090  14.762  0.00  0.00    +0.008 A 
ATOM     19  C   UNL     1      16.642  21.889  14.129  0.00  0.00    +0.021 A 
ATOM     20  C   UNL     1      17.334  20.887  14.793  0.00  0.00    +0.099 A 
ATOM     21  N   UNL     1      17.773  21.083  16.042  0.00  0.00    -0.242 NA
ATOM     22  C   UNL     1      17.564  22.229  16.692  0.00  0.00    +0.099 A 
ATOM     23  C   UNL     1      16.868  23.243  16.052  0.00  0.00    +0.021 A 
ENDBRANCH   5  18
TORSDOF 3
ENDMDL
MODEL 7
REMARK VINA RESULT:      -7.0      2.431      4.328
REMARK  Name = 4C02_TAK.pdb
REMARK  3 active torsions:
REMARK  status: ('A' for Active; 'I' for Inactive)
REMARK    1  A    between atoms: _1  and  _7
REMARK    2  A    between atoms: _12  and  _13
REMARK    3  A    between atoms: _18  and  _19
REMARK                            x       y       z     vdW  Elec       q    Type
REMARK                         _______ _______ _______ _____ _____    ______ ____
ROOT
ATOM      1  C   UNL     1      16.172  23.975  18.636  0.00  0.00    +0.038 A 
ATOM      2  C   UNL     1      16.092  25.243  18.033  0.00  0.00    +0.102 A 
ATOM      3  N   UNL     1      16.251  25.411  16.702  0.00  0.00    -0.225 NA
ATOM      4  C   UNL     1      16.531  24.322  15.883  0.00  0.00    +0.165 A 
ATOM      5  C   UNL     1      16.733  24.221  14.480  0.00  0.00    +0.057 A 
ATOM      6  C   UNL     1      16.971  22.865  14.274  0.00  0.00    +0.124 A 
ATOM      7  N   UNL     1      16.913  22.188  15.454  0.00  0.00    -0.162 NA
ATOM      8  N   UNL     1      16.637  23.128  16.421  0.00  0.00    -0.211 N 
ATOM      9  C   UNL     1      16.449  22.906  17.783  0.00  0.00    +0.104 A 
ENDROOT
BRANCH   1  13
ATOM     10  C   UNL     1      15.586  23.438  22.861  0.00  0.00    +0.139 A 
ATOM     11  C   UNL     1      16.750  23.047  22.257  0.00  0.00    +0.037 A 
ATOM     12  C   UNL     1      16.949  23.213  20.877  0.00  0.00    +0.003 A 
ATOM     13  C   UNL     1      15.961  23.781  20.066  0.00  0.00    +0.003 A 
ATOM     14  C   UNL     1      14.787  24.209  20.682  0.00  0.00    +0.003 A 
ATOM     15  C   UNL     1      14.594  24.039  22.050  0.00  0.00    +0.037 A 
BRANCH  10  16
ATOM     16  O   UNL     1      15.444  23.233  24.282  0.00  0.00    -0.471 OA
ATOM     17  C   UNL     1      14.211  22.770  24.782  0.00  0.00    +0.252 C 
ENDBRANCH  10  16
ENDBRANCH   1  13
BRANCH   5  18
ATOM     18  C   UNL     1      16.727  25.197  13.479  0.00  0.00    +0.008 A 
ATOM     19  C   UNL     1      15.606  25.917  13.112  0.00  0.00    +0.021 A 
ATOM     20  C   UNL     1      15.691  26.877  12.113  0.00  0.00    +0.099 A 
ATOM     21  N   UNL     1      16.862  27.126  11.514  0.00  0.00    -0.242 NA
ATOM     22  C   UNL     1      17.976  26.471  11.844  0.00  0.00    +0.099 A 
ATOM     23  C   UNL     1      17.916  25.503  12.833  0.00  0.00    +0.021 A 
ENDBRANCH   5  18
TORSDOF 3
ENDMDL
MODEL 8
REMARK VINA RESULT:      -6.9      9.249     10.802
REMARK  Name = 4C02_TAK.pdb
REMARK  3 active torsions:
REMARK  status: ('A' for Active; 'I' for Inactive)
REMARK    1  A    between atoms: _1  and  _7
REMARK    2  A    between atoms: _12  and  _13
REMARK    3  A    between atoms: _18  and  _19
REMARK                            x       y       z     vdW  Elec       q    Type
REMARK                         _______ _______ _______ _____ _____    ______ ____
ROOT
ATOM      1  C   UNL     1       9.791  25.770  16.168  0.00  0.00    +0.038 A 
ATOM      2  C   UNL     1       9.657  25.528  14.790  0.00  0.00    +0.102 A 
ATOM      3  N   UNL     1       8.591  25.973  14.088  0.00  0.00    -0.225 NA
ATOM      4  C   UNL     1       7.568  26.667  14.725  0.00  0.00    +0.165 A 
ATOM      5  C   UNL     1       6.365  27.240  14.232  0.00  0.00    +0.057 A 
ATOM      6  C   UNL     1       5.772  27.796  15.363  0.00  0.00    +0.124 A 
ATOM      7  N   UNL     1       6.552  27.586  16.459  0.00  0.00    -0.162 NA
ATOM      8  N   UNL     1       7.653  26.887  16.017  0.00  0.00    -0.211 N 
ATOM      9  C   UNL     1       8.748  26.474  16.772  0.00  0.00    +0.104 A 
ENDROOT
BRANCH   1  13
ATOM     10  C   UNL     1      13.200  24.470  18.442  0.00  0.00    +0.139 A 
ATOM     11  C   UNL     1      12.702  25.738  18.582  0.00  0.00    +0.037 A 
ATOM     12  C   UNL     1      11.593  26.174  17.840  0.00  0.00    +0.003 A 
ATOM     13  C   UNL     1      10.957  25.329  16.925  0.00  0.00    +0.003 A 
ATOM     14  C   UNL     1      11.441  24.028  16.802  0.00  0.00    +0.003 A 
ATOM     15  C   UNL     1      12.543  23.602  17.538  0.00  0.00    +0.037 A 
BRANCH  10  16
ATOM     16  O   UNL     1      14.347  24.089  19.230  0.00  0.00    -0.471 OA
ATOM     17  C   UNL     1      15.093  22.960  18.841  0.00  0.00    +0.252 C 
ENDBRANCH  10  16
ENDBRANCH   1  13
BRANCH   5  18
ATOM     18  C   UNL     1       5.823  27.271  12.944  0.00  0.00    +0.008 A 
ATOM     19  C   UNL     1       5.470  26.142  12.229  0.00  0.00    +0.021 A 
ATOM     20  C   UNL     1       4.927  26.264  10.958  0.00  0.00    +0.099 A 
ATOM     21  N   UNL     1       4.722  27.475  10.424  0.00  0.00    -0.242 NA
ATOM     22  C   UNL     1       5.029  28.595  11.080  0.00  0.00    +0.099 A 
ATOM     23  C   UNL     1       5.579  28.500  12.348  0.00  0.00    +0.021 A 
ENDBRANCH   5  18
TORSDOF 3
ENDMDL
MODEL 9
REMARK VINA RESULT:      -6.8      7.727      9.350
REMARK  Name = 4C02_TAK.pdb
REMARK  3 active torsions:
REMARK  status: ('A' for Active; 'I' for Inactive)
REMARK    1  A    between atoms: _1  and  _7
REMARK    2  A    between atoms: _12  and  _13
REMARK    3  A    between atoms: _18  and  _19
REMARK                            x       y       z     vdW  Elec       q    Type
REMARK                         _______ _______ _______ _____ _____    ______ ____
ROOT
ATOM      1  C   UNL     1      10.600  23.816  18.021  0.00  0.00    +0.038 A 
ATOM      2  C   UNL     1      10.552  24.567  16.833  0.00  0.00    +0.102 A 
ATOM      3  N   UNL     1       9.410  25.147  16.402  0.00  0.00    -0.225 NA
ATOM      4  C   UNL     1       8.227  24.991  17.117  0.00  0.00    +0.165 A 
ATOM      5  C   UNL     1       6.915  25.490  16.894  0.00  0.00    +0.057 A 
ATOM      6  C   UNL     1       6.180  24.983  17.962  0.00  0.00    +0.124 A 
ATOM      7  N   UNL     1       6.978  24.240  18.778  0.00  0.00    -0.162 NA
ATOM      8  N   UNL     1       8.235  24.274  18.217  0.00  0.00    -0.211 N 
ATOM      9  C   UNL     1       9.396  23.686  18.714  0.00  0.00    +0.104 A 
ENDROOT
BRANCH   1  13
ATOM     10  C   UNL     1      14.227  22.016  19.464  0.00  0.00    +0.139 A 
ATOM     11  C   UNL     1      13.053  21.887  20.157  0.00  0.00    +0.037 A 
ATOM     12  C   UNL     1      11.865  22.476  19.697  0.00  0.00    +0.003 A 
ATOM     13  C   UNL     1      11.836  23.222  18.514  0.00  0.00    +0.003 A 
ATOM     14  C   UNL     1      13.022  23.328  17.789  0.00  0.00    +0.003 A 
ATOM     15  C   UNL     1      14.198  22.745  18.252  0.00  0.00    +0.037 A 
BRANCH  10  16
ATOM     16  O   UNL     1      15.414  21.390  19.996  0.00  0.00    -0.471 OA
ATOM     17  C   UNL     1      16.262  22.144  20.830  0.00  0.00    +0.252 C 
ENDBRANCH  10  16
ENDBRANCH   1  13
BRANCH   5  18
ATOM     18  C   UNL     1       6.398  26.288  15.869  0.00  0.00    +0.008 A 
ATOM     19  C   UNL     1       6.291  27.663  15.944  0.00  0.00    +0.021 A 
ATOM     20  C   UNL     1       5.774  28.381  14.874  0.00  0.00    +0.099 A 
ATOM     21  N   UNL     1       5.395  27.749  13.757  0.00  0.00    -0.242 NA
ATOM     22  C   UNL     1       5.494  26.425  13.628  0.00  0.00    +0.099 A 
ATOM     23  C   UNL     1       6.001  25.685  14.685  0.00  0.00    +0.021 A 
ENDBRANCH   5  18
TORSDOF 3
ENDMDL
