MODEL 1
REMARK VINA RESULT:      -9.2      0.000      0.000
REMARK  Name = 5OXG_B4B.pdb
REMARK  3 active torsions:
REMARK  status: ('A' for Active; 'I' for Inactive)
REMARK    1  A    between atoms: _3  and  _7
REMARK    2  A    between atoms: _10  and  _13
REMARK    3  A    between atoms: _17  and  _22
REMARK                            x       y       z     vdW  Elec       q    Type
REMARK                         _______ _______ _______ _____ _____    ______ ____
ROOT
ATOM      1  C   UNL     1      11.352  23.619  17.934  0.00  0.00    +0.038 A 
ATOM      2  C   UNL     1      10.258  23.424  18.786  0.00  0.00    +0.104 A 
ATOM      3  N   UNL     1       8.985  23.708  18.358  0.00  0.00    -0.211 N 
ATOM      4  N   UNL     1       7.782  23.617  19.009  0.00  0.00    -0.162 NA
ATOM      5  C   UNL     1       6.804  23.991  18.173  0.00  0.00    +0.124 A 
ATOM      6  C   UNL     1       7.361  24.344  16.950  0.00  0.00    +0.057 A 
ATOM      7  C   UNL     1       8.762  24.143  17.121  0.00  0.00    +0.165 A 
ATOM      8  N   UNL     1       9.803  24.339  16.253  0.00  0.00    -0.225 NA
ATOM      9  C   UNL     1      11.069  24.064  16.629  0.00  0.00    +0.102 A 
ENDROOT
BRANCH   6  10
ATOM     10  C   UNL     1       6.609  24.815  15.858  0.00  0.00    +0.006 A 
ATOM     11  C   UNL     1       6.454  26.194  15.471  0.00  0.00    +0.018 A 
ATOM     12  C   UNL     1       7.026  27.291  16.209  0.00  0.00    +0.003 A 
ATOM     13  C   UNL     1       6.814  28.594  15.770  0.00  0.00    +0.021 A 
ATOM     14  C   UNL     1       6.059  28.833  14.614  0.00  0.00    +0.099 A 
ATOM     15  N   UNL     1       5.517  27.813  13.917  0.00  0.00    -0.244 NA
ATOM     16  C   UNL     1       5.714  26.508  14.343  0.00  0.00    +0.081 A 
ATOM     17  C   UNL     1       5.105  25.497  13.549  0.00  0.00    +0.019 A 
ATOM     18  C   UNL     1       5.279  24.160  13.902  0.00  0.00    +0.002 A 
ATOM     19  C   UNL     1       6.013  23.835  15.051  0.00  0.00    +0.000 A 
ENDBRANCH   6  10
BRANCH   1  23
ATOM     20  C   UNL     1      15.293  22.553  19.114  0.00  0.00    +0.048 A 
ATOM     21  C   UNL     1      14.199  22.163  19.856  0.00  0.00    +0.015 A 
ATOM     22  C   UNL     1      12.907  22.517  19.480  0.00  0.00    +0.001 A 
ATOM     23  C   UNL     1      12.662  23.288  18.346  0.00  0.00    +0.003 A 
ATOM     24  C   UNL     1      13.768  23.650  17.573  0.00  0.00    +0.001 A 
ATOM     25  C   UNL     1      15.052  23.282  17.951  0.00  0.00    +0.015 A 
BRANCH  20  30
ATOM     26  C   UNL     1      18.191  21.215  21.247  0.00  0.00    +0.110 C 
ATOM     27  N   UNL     1      19.254  22.061  20.783  0.00  0.00    -0.214 NA
ATOM     28  C   UNL     1      19.071  22.479  19.406  0.00  0.00    +0.110 C 
ATOM     29  C   UNL     1      17.674  23.019  19.117  0.00  0.00    +0.110 C 
ATOM     30  N   UNL     1      16.603  22.136  19.515  0.00  0.00    -0.305 N 
ATOM     31  C   UNL     1      16.800  21.724  20.882  0.00  0.00    +0.110 C 
ENDBRANCH  20  30
ENDBRANCH   1  23
TORSDOF 3
ENDMDL
MODEL 2
REMARK VINA RESULT:      -9.1      7.075     11.389
REMARK  Name = 5OXG_B4B.pdb
REMARK  3 active torsions:
REMARK  status: ('A' for Active; 'I' for Inactive)
REMARK    1  A    between atoms: _3  and  _7
REMARK    2  A    between atoms: _10  and  _13
REMARK    3  A    between atoms: _17  and  _22
REMARK                            x       y       z     vdW  Elec       q    Type
REMARK                         _______ _______ _______ _____ _____    ______ ____
ROOT
ATOM      1  C   UNL     1      17.270  25.835  13.896  0.00  0.00    +0.038 A 
ATOM      2  C   UNL     1      17.278  24.485  13.522  0.00  0.00    +0.104 A 
ATOM      3  N   UNL     1      17.017  23.507  14.450  0.00  0.00    -0.211 N 
ATOM      4  N   UNL     1      16.989  22.142  14.324  0.00  0.00    -0.162 NA
ATOM      5  C   UNL     1      16.668  21.601  15.507  0.00  0.00    +0.124 A 
ATOM      6  C   UNL     1      16.487  22.617  16.437  0.00  0.00    +0.057 A 
ATOM      7  C   UNL     1      16.720  23.820  15.708  0.00  0.00    +0.165 A 
ATOM      8  N   UNL     1      16.692  25.128  16.112  0.00  0.00    -0.225 NA
ATOM      9  C   UNL     1      16.934  26.122  15.232  0.00  0.00    +0.102 A 
ENDROOT
BRANCH   6  10
ATOM     10  C   UNL     1      16.173  22.389  17.790  0.00  0.00    +0.006 A 
ATOM     11  C   UNL     1      17.053  22.607  18.910  0.00  0.00    +0.018 A 
ATOM     12  C   UNL     1      18.416  23.049  18.769  0.00  0.00    +0.003 A 
ATOM     13  C   UNL     1      19.200  23.220  19.907  0.00  0.00    +0.021 A 
ATOM     14  C   UNL     1      18.661  22.975  21.176  0.00  0.00    +0.099 A 
ATOM     15  N   UNL     1      17.384  22.559  21.318  0.00  0.00    -0.244 NA
ATOM     16  C   UNL     1      16.592  22.377  20.196  0.00  0.00    +0.081 A 
ATOM     17  C   UNL     1      15.262  21.935  20.440  0.00  0.00    +0.019 A 
ATOM     18  C   UNL     1      14.397  21.754  19.361  0.00  0.00    +0.002 A 
ATOM     19  C   UNL     1      14.862  21.969  18.056  0.00  0.00    +0.000 A 
ENDBRANCH   6  10
BRANCH   1  23
ATOM     20  C   UNL     1      18.002  28.847  10.988  0.00  0.00    +0.048 A 
ATOM     21  C   UNL     1      18.566  28.919  12.244  0.00  0.00    +0.015 A 
ATOM     22  C   UNL     1      18.322  27.941  13.203  0.00  0.00    +0.001 A 
ATOM     23  C   UNL     1      17.492  26.853  12.943  0.00  0.00    +0.003 A 
ATOM     24  C   UNL     1      16.952  26.761  11.658  0.00  0.00    +0.001 A 
ATOM     25  C   UNL     1      17.210  27.736  10.704  0.00  0.00    +0.015 A 
BRANCH  20  30
ATOM     26  C   UNL     1      19.774  31.723   9.166  0.00  0.00    +0.110 C 
ATOM     27  N   UNL     1      18.634  32.454   8.686  0.00  0.00    -0.214 NA
ATOM     28  C   UNL     1      17.490  31.598   8.433  0.00  0.00    +0.110 C 
ATOM     29  C   UNL     1      17.180  30.645   9.583  0.00  0.00    +0.110 C 
ATOM     30  N   UNL     1      18.307  29.855  10.018  0.00  0.00    -0.305 N 
ATOM     31  C   UNL     1      19.437  30.715  10.260  0.00  0.00    +0.110 C 
ENDBRANCH  20  30
ENDBRANCH   1  23
TORSDOF 3
ENDMDL
MODEL 3
REMARK VINA RESULT:      -9.0      2.400      3.841
REMARK  Name = 5OXG_B4B.pdb
REMARK  3 active torsions:
REMARK  status: ('A' for Active; 'I' for Inactive)
REMARK    1  A    between atoms: _3  and  _7
REMARK    2  A    between atoms: _10  and  _13
REMARK    3  A    between atoms: _17  and  _22
REMARK                            x       y       z     vdW  Elec       q    Type
REMARK                         _______ _______ _______ _____ _____    ______ ____
ROOT
ATOM      1  C   UNL     1      10.208  26.245  16.572  0.00  0.00    +0.038 A 
ATOM      2  C   UNL     1       9.014  26.607  17.209  0.00  0.00    +0.104 A 
ATOM      3  N   UNL     1       7.890  26.884  16.471  0.00  0.00    -0.211 N 
ATOM      4  N   UNL     1       6.636  27.272  16.865  0.00  0.00    -0.162 NA
ATOM      5  C   UNL     1       5.860  27.408  15.781  0.00  0.00    +0.124 A 
ATOM      6  C   UNL     1       6.607  27.115  14.648  0.00  0.00    +0.057 A 
ATOM      7  C   UNL     1       7.902  26.783  15.145  0.00  0.00    +0.165 A 
ATOM      8  N   UNL     1       9.046  26.422  14.484  0.00  0.00    -0.225 NA
ATOM      9  C   UNL     1      10.171  26.133  15.170  0.00  0.00    +0.102 A 
ENDROOT
BRANCH   6  10
ATOM     10  C   UNL     1       6.100  27.192  13.337  0.00  0.00    +0.006 A 
ATOM     11  C   UNL     1       5.878  26.078  12.450  0.00  0.00    +0.018 A 
ATOM     12  C   UNL     1       6.207  24.719  12.792  0.00  0.00    +0.003 A 
ATOM     13  C   UNL     1       5.972  23.705  11.867  0.00  0.00    +0.021 A 
ATOM     14  C   UNL     1       5.409  24.008  10.620  0.00  0.00    +0.099 A 
ATOM     15  N   UNL     1       5.099  25.279  10.290  0.00  0.00    -0.244 NA
ATOM     16  C   UNL     1       5.332  26.302  11.197  0.00  0.00    +0.081 A 
ATOM     17  C   UNL     1       4.977  27.609  10.764  0.00  0.00    +0.019 A 
ATOM     18  C   UNL     1       5.160  28.685  11.631  0.00  0.00    +0.002 A 
ATOM     19  C   UNL     1       5.727  28.469  12.894  0.00  0.00    +0.000 A 
ENDBRANCH   6  10
BRANCH   1  23
ATOM     20  C   UNL     1      13.696  25.190  18.760  0.00  0.00    +0.048 A 
ATOM     21  C   UNL     1      12.471  24.635  19.064  0.00  0.00    +0.015 A 
ATOM     22  C   UNL     1      11.324  24.984  18.358  0.00  0.00    +0.001 A 
ATOM     23  C   UNL     1      11.359  25.914  17.321  0.00  0.00    +0.003 A 
ATOM     24  C   UNL     1      12.607  26.446  16.988  0.00  0.00    +0.001 A 
ATOM     25  C   UNL     1      13.747  26.083  17.692  0.00  0.00    +0.015 A 
BRANCH  20  30
ATOM     26  C   UNL     1      17.084  23.594  19.600  0.00  0.00    +0.110 C 
ATOM     27  N   UNL     1      16.821  23.138  20.937  0.00  0.00    -0.214 NA
ATOM     28  C   UNL     1      15.853  23.969  21.627  0.00  0.00    +0.110 C 
ATOM     29  C   UNL     1      14.597  24.248  20.805  0.00  0.00    +0.110 C 
ATOM     30  N   UNL     1      14.858  24.777  19.487  0.00  0.00    -0.305 N 
ATOM     31  C   UNL     1      15.825  23.947  18.815  0.00  0.00    +0.110 C 
ENDBRANCH  20  30
ENDBRANCH   1  23
TORSDOF 3
ENDMDL
MODEL 4
REMARK VINA RESULT:      -8.9      5.000      7.087
REMARK  Name = 5OXG_B4B.pdb
REMARK  3 active torsions:
REMARK  status: ('A' for Active; 'I' for Inactive)
REMARK    1  A    between atoms: _3  and  _7
REMARK    2  A    between atoms: _10  and  _13
REMARK    3  A    between atoms: _17  and  _22
REMARK                            x       y       z     vdW  Elec       q    Type
REMARK                         _______ _______ _______ _____ _____    ______ ____
ROOT
ATOM      1  C   UNL     1      10.999  26.194  15.455  0.00  0.00    +0.038 A 
ATOM      2  C   UNL     1       9.918  25.593  14.798  0.00  0.00    +0.104 A 
ATOM      3  N   UNL     1       8.800  25.217  15.501  0.00  0.00    -0.211 N 
ATOM      4  N   UNL     1       7.646  24.604  15.084  0.00  0.00    -0.162 NA
ATOM      5  C   UNL     1       6.828  24.453  16.135  0.00  0.00    +0.124 A 
ATOM      6  C   UNL     1       7.446  24.964  17.269  0.00  0.00    +0.057 A 
ATOM      7  C   UNL     1       8.707  25.443  16.809  0.00  0.00    +0.165 A 
ATOM      8  N   UNL     1       9.737  26.037  17.487  0.00  0.00    -0.225 NA
ATOM      9  C   UNL     1      10.851  26.431  16.835  0.00  0.00    +0.102 A 
ENDROOT
BRANCH   6  10
ATOM     10  C   UNL     1       6.868  24.933  18.552  0.00  0.00    +0.006 A 
ATOM     11  C   UNL     1       7.180  23.990  19.596  0.00  0.00    +0.018 A 
ATOM     12  C   UNL     1       8.109  22.903  19.427  0.00  0.00    +0.003 A 
ATOM     13  C   UNL     1       8.339  22.030  20.487  0.00  0.00    +0.021 A 
ATOM     14  C   UNL     1       7.678  22.216  21.708  0.00  0.00    +0.099 A 
ATOM     15  N   UNL     1       6.804  23.231  21.875  0.00  0.00    -0.244 NA
ATOM     16  C   UNL     1       6.558  24.106  20.829  0.00  0.00    +0.081 A 
ATOM     17  C   UNL     1       5.622  25.143  21.094  0.00  0.00    +0.019 A 
ATOM     18  C   UNL     1       5.342  26.077  20.097  0.00  0.00    +0.002 A 
ATOM     19  C   UNL     1       5.954  25.956  18.842  0.00  0.00    +0.000 A 
ENDBRANCH   6  10
BRANCH   1  23
ATOM     20  C   UNL     1      14.365  27.518  13.224  0.00  0.00    +0.048 A 
ATOM     21  C   UNL     1      14.046  26.179  13.303  0.00  0.00    +0.015 A 
ATOM     22  C   UNL     1      12.950  25.739  14.039  0.00  0.00    +0.001 A 
ATOM     23  C   UNL     1      12.135  26.627  14.737  0.00  0.00    +0.003 A 
ATOM     24  C   UNL     1      12.436  27.987  14.626  0.00  0.00    +0.001 A 
ATOM     25  C   UNL     1      13.524  28.417  13.879  0.00  0.00    +0.015 A 
BRANCH  20  30
ATOM     26  C   UNL     1      16.651  29.655  11.001  0.00  0.00    +0.110 C 
ATOM     27  N   UNL     1      17.171  28.639  10.129  0.00  0.00    -0.214 NA
ATOM     28  C   UNL     1      17.247  27.340  10.770  0.00  0.00    +0.110 C 
ATOM     29  C   UNL     1      15.962  26.944  11.492  0.00  0.00    +0.110 C 
ATOM     30  N   UNL     1      15.479  27.933  12.426  0.00  0.00    -0.305 N 
ATOM     31  C   UNL     1      15.413  29.219  11.778  0.00  0.00    +0.110 C 
ENDBRANCH  20  30
ENDBRANCH   1  23
TORSDOF 3
ENDMDL
MODEL 5
REMARK VINA RESULT:      -8.8      6.024      7.730
REMARK  Name = 5OXG_B4B.pdb
REMARK  3 active torsions:
REMARK  status: ('A' for Active; 'I' for Inactive)
REMARK    1  A    between atoms: _3  and  _7
REMARK    2  A    between atoms: _10  and  _13
REMARK    3  A    between atoms: _17  and  _22
REMARK                            x       y       z     vdW  Elec       q    Type
REMARK                         _______ _______ _______ _____ _____    ______ ____
ROOT
ATOM      1  C   UNL     1      14.732  23.834  18.696  0.00  0.00    +0.038 A 
ATOM      2  C   UNL     1      14.219  23.026  17.672  0.00  0.00    +0.104 A 
ATOM      3  N   UNL     1      14.505  23.305  16.359  0.00  0.00    -0.211 N 
ATOM      4  N   UNL     1      14.108  22.679  15.206  0.00  0.00    -0.162 NA
ATOM      5  C   UNL     1      14.658  23.305  14.157  0.00  0.00    +0.124 A 
ATOM      6  C   UNL     1      15.427  24.368  14.614  0.00  0.00    +0.057 A 
ATOM      7  C   UNL     1      15.297  24.323  16.033  0.00  0.00    +0.165 A 
ATOM      8  N   UNL     1      15.826  25.132  17.004  0.00  0.00    -0.225 NA
ATOM      9  C   UNL     1      15.578  24.889  18.308  0.00  0.00    +0.102 A 
ENDROOT
BRANCH   6  10
ATOM     10  C   UNL     1      16.118  25.253  13.765  0.00  0.00    +0.006 A 
ATOM     11  C   UNL     1      15.655  26.551  13.342  0.00  0.00    +0.018 A 
ATOM     12  C   UNL     1      14.371  27.090  13.708  0.00  0.00    +0.003 A 
ATOM     13  C   UNL     1      14.001  28.348  13.241  0.00  0.00    +0.021 A 
ATOM     14  C   UNL     1      14.877  29.085  12.433  0.00  0.00    +0.099 A 
ATOM     15  N   UNL     1      16.082  28.587  12.083  0.00  0.00    -0.244 NA
ATOM     16  C   UNL     1      16.464  27.333  12.534  0.00  0.00    +0.081 A 
ATOM     17  C   UNL     1      17.749  26.888  12.115  0.00  0.00    +0.019 A 
ATOM     18  C   UNL     1      18.213  25.647  12.549  0.00  0.00    +0.002 A 
ATOM     19  C   UNL     1      17.393  24.843  13.353  0.00  0.00    +0.000 A 
ENDBRANCH   6  10
BRANCH   1  23
ATOM     20  C   UNL     1      13.917  22.990  22.780  0.00  0.00    +0.048 A 
ATOM     21  C   UNL     1      14.980  23.789  22.418  0.00  0.00    +0.015 A 
ATOM     22  C   UNL     1      15.258  24.061  21.082  0.00  0.00    +0.001 A 
ATOM     23  C   UNL     1      14.482  23.532  20.053  0.00  0.00    +0.003 A 
ATOM     24  C   UNL     1      13.382  22.754  20.422  0.00  0.00    +0.001 A 
ATOM     25  C   UNL     1      13.107  22.498  21.758  0.00  0.00    +0.015 A 
BRANCH  20  30
ATOM     26  C   UNL     1      14.322  21.888  26.435  0.00  0.00    +0.110 C 
ATOM     27  N   UNL     1      12.979  21.462  26.717  0.00  0.00    -0.214 NA
ATOM     28  C   UNL     1      11.990  22.189  25.944  0.00  0.00    +0.110 C 
ATOM     29  C   UNL     1      12.320  22.265  24.456  0.00  0.00    +0.110 C 
ATOM     30  N   UNL     1      13.644  22.765  24.168  0.00  0.00    -0.305 N 
ATOM     31  C   UNL     1      14.615  22.039  24.946  0.00  0.00    +0.110 C 
ENDBRANCH  20  30
ENDBRANCH   1  23
TORSDOF 3
ENDMDL
MODEL 6
REMARK VINA RESULT:      -8.8      6.062      9.803
REMARK  Name = 5OXG_B4B.pdb
REMARK  3 active torsions:
REMARK  status: ('A' for Active; 'I' for Inactive)
REMARK    1  A    between atoms: _3  and  _7
REMARK    2  A    between atoms: _10  and  _13
REMARK    3  A    between atoms: _17  and  _22
REMARK                            x       y       z     vdW  Elec       q    Type
REMARK                         _______ _______ _______ _____ _____    ______ ____
ROOT
ATOM      1  C   UNL     1      15.914  24.685  17.021  0.00  0.00    +0.038 A 
ATOM      2  C   UNL     1      16.876  23.770  17.466  0.00  0.00    +0.104 A 
ATOM      3  N   UNL     1      16.780  23.215  18.718  0.00  0.00    -0.211 N 
ATOM      4  N   UNL     1      17.598  22.327  19.367  0.00  0.00    -0.162 NA
ATOM      5  C   UNL     1      17.083  22.061  20.575  0.00  0.00    +0.124 A 
ATOM      6  C   UNL     1      15.910  22.786  20.738  0.00  0.00    +0.057 A 
ATOM      7  C   UNL     1      15.759  23.508  19.518  0.00  0.00    +0.165 A 
ATOM      8  N   UNL     1      14.791  24.391  19.118  0.00  0.00    -0.225 NA
ATOM      9  C   UNL     1      14.842  24.953  17.892  0.00  0.00    +0.102 A 
ENDROOT
BRANCH   6  10
ATOM     10  C   UNL     1      15.133  22.759  21.912  0.00  0.00    +0.006 A 
ATOM     11  C   UNL     1      13.760  22.332  22.007  0.00  0.00    +0.018 A 
ATOM     12  C   UNL     1      12.981  21.918  20.869  0.00  0.00    +0.003 A 
ATOM     13  C   UNL     1      11.656  21.535  21.052  0.00  0.00    +0.021 A 
ATOM     14  C   UNL     1      11.092  21.542  22.334  0.00  0.00    +0.099 A 
ATOM     15  N   UNL     1      11.813  21.931  23.407  0.00  0.00    -0.244 NA
ATOM     16  C   UNL     1      13.133  22.321  23.242  0.00  0.00    +0.081 A 
ATOM     17  C   UNL     1      13.816  22.716  24.426  0.00  0.00    +0.019 A 
ATOM     18  C   UNL     1      15.154  23.099  24.342  0.00  0.00    +0.002 A 
ATOM     19  C   UNL     1      15.790  23.128  23.094  0.00  0.00    +0.000 A 
ENDBRANCH   6  10
BRANCH   1  23
ATOM     20  C   UNL     1      16.031  26.267  13.078  0.00  0.00    +0.048 A 
ATOM     21  C   UNL     1      16.908  25.280  13.474  0.00  0.00    +0.015 A 
ATOM     22  C   UNL     1      16.881  24.764  14.767  0.00  0.00    +0.001 A 
ATOM     23  C   UNL     1      15.976  25.229  15.719  0.00  0.00    +0.003 A 
ATOM     24  C   UNL     1      15.062  26.201  15.305  0.00  0.00    +0.001 A 
ATOM     25  C   UNL     1      15.090  26.700  14.010  0.00  0.00    +0.015 A 
BRANCH  20  30
ATOM     26  C   UNL     1      17.271  27.881   9.823  0.00  0.00    +0.110 C 
ATOM     27  N   UNL     1      16.058  28.511   9.380  0.00  0.00    -0.214 NA
ATOM     28  C   UNL     1      14.871  27.799   9.811  0.00  0.00    +0.110 C 
ATOM     29  C   UNL     1      14.882  27.445  11.296  0.00  0.00    +0.110 C 
ATOM     30  N   UNL     1      16.068  26.744  11.728  0.00  0.00    -0.305 N 
ATOM     31  C   UNL     1      17.240  27.458  11.289  0.00  0.00    +0.110 C 
ENDBRANCH  20  30
ENDBRANCH   1  23
TORSDOF 3
ENDMDL
MODEL 7
REMARK VINA RESULT:      -8.6      6.529      8.361
REMARK  Name = 5OXG_B4B.pdb
REMARK  3 active torsions:
REMARK  status: ('A' for Active; 'I' for Inactive)
REMARK    1  A    between atoms: _3  and  _7
REMARK    2  A    between atoms: _10  and  _13
REMARK    3  A    between atoms: _17  and  _22
REMARK                            x       y       z     vdW  Elec       q    Type
REMARK                         _______ _______ _______ _____ _____    ______ ____
ROOT
ATOM      1  C   UNL     1      15.545  25.113  19.265  0.00  0.00    +0.038 A 
ATOM      2  C   UNL     1      15.469  26.502  19.102  0.00  0.00    +0.104 A 
ATOM      3  N   UNL     1      15.827  27.082  17.910  0.00  0.00    -0.211 N 
ATOM      4  N   UNL     1      15.854  28.399  17.530  0.00  0.00    -0.162 NA
ATOM      5  C   UNL     1      16.261  28.478  16.256  0.00  0.00    +0.124 A 
ATOM      6  C   UNL     1      16.517  27.198  15.781  0.00  0.00    +0.057 A 
ATOM      7  C   UNL     1      16.221  26.339  16.881  0.00  0.00    +0.165 A 
ATOM      8  N   UNL     1      16.301  24.977  16.995  0.00  0.00    -0.225 NA
ATOM      9  C   UNL     1      15.951  24.364  18.145  0.00  0.00    +0.102 A 
ENDROOT
BRANCH   6  10
ATOM     10  C   UNL     1      16.993  26.928  14.484  0.00  0.00    +0.006 A 
ATOM     11  C   UNL     1      16.235  27.050  13.265  0.00  0.00    +0.018 A 
ATOM     12  C   UNL     1      14.846  27.426  13.232  0.00  0.00    +0.003 A 
ATOM     13  C   UNL     1      14.189  27.506  12.007  0.00  0.00    +0.021 A 
ATOM     14  C   UNL     1      14.879  27.233  10.819  0.00  0.00    +0.099 A 
ATOM     15  N   UNL     1      16.181  26.879  10.839  0.00  0.00    -0.244 NA
ATOM     16  C   UNL     1      16.850  26.789  12.051  0.00  0.00    +0.081 A 
ATOM     17  C   UNL     1      18.218  26.407  11.978  0.00  0.00    +0.019 A 
ATOM     18  C   UNL     1      18.962  26.318  13.153  0.00  0.00    +0.002 A 
ATOM     19  C   UNL     1      18.343  26.566  14.386  0.00  0.00    +0.000 A 
ENDBRANCH   6  10
BRANCH   1  23
ATOM     20  C   UNL     1      14.332  23.185  22.853  0.00  0.00    +0.048 A 
ATOM     21  C   UNL     1      13.403  23.661  21.952  0.00  0.00    +0.015 A 
ATOM     22  C   UNL     1      13.794  24.302  20.780  0.00  0.00    +0.001 A 
ATOM     23  C   UNL     1      15.137  24.500  20.470  0.00  0.00    +0.003 A 
ATOM     24  C   UNL     1      16.078  23.983  21.364  0.00  0.00    +0.001 A 
ATOM     25  C   UNL     1      15.678  23.335  22.525  0.00  0.00    +0.015 A 
BRANCH  20  30
ATOM     26  C   UNL     1      12.040  21.690  25.545  0.00  0.00    +0.110 C 
ATOM     27  N   UNL     1      12.836  21.936  26.715  0.00  0.00    -0.214 NA
ATOM     28  C   UNL     1      14.258  21.937  26.430  0.00  0.00    +0.110 C 
ATOM     29  C   UNL     1      14.635  22.797  25.228  0.00  0.00    +0.110 C 
ATOM     30  N   UNL     1      13.888  22.500  24.029  0.00  0.00    -0.305 N 
ATOM     31  C   UNL     1      12.478  22.496  24.326  0.00  0.00    +0.110 C 
ENDBRANCH  20  30
ENDBRANCH   1  23
TORSDOF 3
ENDMDL
MODEL 8
REMARK VINA RESULT:      -8.5      6.989     11.235
REMARK  Name = 5OXG_B4B.pdb
REMARK  3 active torsions:
REMARK  status: ('A' for Active; 'I' for Inactive)
REMARK    1  A    between atoms: _3  and  _7
REMARK    2  A    between atoms: _10  and  _13
REMARK    3  A    between atoms: _17  and  _22
REMARK                            x       y       z     vdW  Elec       q    Type
REMARK                         _______ _______ _______ _____ _____    ______ ____
ROOT
ATOM      1  C   UNL     1      17.457  26.161  14.092  0.00  0.00    +0.038 A 
ATOM      2  C   UNL     1      17.307  24.832  13.677  0.00  0.00    +0.104 A 
ATOM      3  N   UNL     1      17.156  23.829  14.603  0.00  0.00    -0.211 N 
ATOM      4  N   UNL     1      17.014  22.475  14.438  0.00  0.00    -0.162 NA
ATOM      5  C   UNL     1      16.881  21.901  15.642  0.00  0.00    +0.124 A 
ATOM      6  C   UNL     1      16.942  22.882  16.623  0.00  0.00    +0.057 A 
ATOM      7  C   UNL     1      17.117  24.101  15.904  0.00  0.00    +0.165 A 
ATOM      8  N   UNL     1      17.252  25.388  16.351  0.00  0.00    -0.225 NA
ATOM      9  C   UNL     1      17.394  26.406  15.476  0.00  0.00    +0.102 A 
ENDROOT
BRANCH   6  10
ATOM     10  C   UNL     1      16.868  22.611  18.002  0.00  0.00    +0.006 A 
ATOM     11  C   UNL     1      15.657  22.461  18.769  0.00  0.00    +0.018 A 
ATOM     12  C   UNL     1      14.341  22.626  18.208  0.00  0.00    +0.003 A 
ATOM     13  C   UNL     1      13.225  22.477  19.027  0.00  0.00    +0.021 A 
ATOM     14  C   UNL     1      13.385  22.158  20.382  0.00  0.00    +0.099 A 
ATOM     15  N   UNL     1      14.614  22.003  20.917  0.00  0.00    -0.244 NA
ATOM     16  C   UNL     1      15.736  22.154  20.118  0.00  0.00    +0.081 A 
ATOM     17  C   UNL     1      16.990  21.975  20.766  0.00  0.00    +0.019 A 
ATOM     18  C   UNL     1      18.162  22.088  20.020  0.00  0.00    +0.002 A 
ATOM     19  C   UNL     1      18.090  22.414  18.659  0.00  0.00    +0.000 A 
ENDBRANCH   6  10
BRANCH   1  23
ATOM     20  C   UNL     1      17.878  29.287  11.243  0.00  0.00    +0.048 A 
ATOM     21  C   UNL     1      17.937  29.546  12.596  0.00  0.00    +0.015 A 
ATOM     22  C   UNL     1      17.790  28.528  13.534  0.00  0.00    +0.001 A 
ATOM     23  C   UNL     1      17.568  27.208  13.149  0.00  0.00    +0.003 A 
ATOM     24  C   UNL     1      17.548  26.940  11.778  0.00  0.00    +0.001 A 
ATOM     25  C   UNL     1      17.706  27.961  10.851  0.00  0.00    +0.015 A 
BRANCH  20  30
ATOM     26  C   UNL     1      17.414  32.602   9.365  0.00  0.00    +0.110 C 
ATOM     27  N   UNL     1      17.736  32.180   8.030  0.00  0.00    -0.214 NA
ATOM     28  C   UNL     1      18.689  31.086   8.007  0.00  0.00    +0.110 C 
ATOM     29  C   UNL     1      18.322  29.944   8.951  0.00  0.00    +0.110 C 
ATOM     30  N   UNL     1      18.071  30.357  10.311  0.00  0.00    -0.305 N 
ATOM     31  C   UNL     1      17.129  31.447  10.319  0.00  0.00    +0.110 C 
ENDBRANCH  20  30
ENDBRANCH   1  23
TORSDOF 3
ENDMDL
MODEL 9
REMARK VINA RESULT:      -8.5      6.442     10.095
REMARK  Name = 5OXG_B4B.pdb
REMARK  3 active torsions:
REMARK  status: ('A' for Active; 'I' for Inactive)
REMARK    1  A    between atoms: _3  and  _7
REMARK    2  A    between atoms: _10  and  _13
REMARK    3  A    between atoms: _17  and  _22
REMARK                            x       y       z     vdW  Elec       q    Type
REMARK                         _______ _______ _______ _____ _____    ______ ____
ROOT
ATOM      1  C   UNL     1      15.927  25.251  15.719  0.00  0.00    +0.038 A 
ATOM      2  C   UNL     1      15.730  23.865  15.659  0.00  0.00    +0.104 A 
ATOM      3  N   UNL     1      15.536  23.141  16.809  0.00  0.00    -0.211 N 
ATOM      4  N   UNL     1      15.347  21.796  16.996  0.00  0.00    -0.162 NA
ATOM      5  C   UNL     1      15.184  21.556  18.305  0.00  0.00    +0.124 A 
ATOM      6  C   UNL     1      15.275  22.755  19.001  0.00  0.00    +0.057 A 
ATOM      7  C   UNL     1      15.499  23.740  17.995  0.00  0.00    +0.165 A 
ATOM      8  N   UNL     1      15.677  25.094  18.097  0.00  0.00    -0.225 NA
ATOM      9  C   UNL     1      15.862  25.846  16.992  0.00  0.00    +0.102 A 
ENDROOT
BRANCH   6  10
ATOM     10  C   UNL     1      15.181  22.852  20.402  0.00  0.00    +0.006 A 
ATOM     11  C   UNL     1      14.048  22.459  21.201  0.00  0.00    +0.018 A 
ATOM     12  C   UNL     1      12.822  21.953  20.640  0.00  0.00    +0.003 A 
ATOM     13  C   UNL     1      11.773  21.611  21.488  0.00  0.00    +0.021 A 
ATOM     14  C   UNL     1      11.915  21.749  22.875  0.00  0.00    +0.099 A 
ATOM     15  N   UNL     1      13.060  22.224  23.411  0.00  0.00    -0.244 NA
ATOM     16  C   UNL     1      14.113  22.575  22.580  0.00  0.00    +0.081 A 
ATOM     17  C   UNL     1      15.278  23.068  23.230  0.00  0.00    +0.019 A 
ATOM     18  C   UNL     1      16.388  23.418  22.462  0.00  0.00    +0.002 A 
ATOM     19  C   UNL     1      16.323  23.319  21.066  0.00  0.00    +0.000 A 
ENDBRANCH   6  10
BRANCH   1  23
ATOM     20  C   UNL     1      16.313  27.517  12.144  0.00  0.00    +0.048 A 
ATOM     21  C   UNL     1      16.942  26.298  12.285  0.00  0.00    +0.015 A 
ATOM     22  C   UNL     1      16.827  25.556  13.456  0.00  0.00    +0.001 A 
ATOM     23  C   UNL     1      16.082  26.014  14.541  0.00  0.00    +0.003 A 
ATOM     24  C   UNL     1      15.413  27.230  14.383  0.00  0.00    +0.001 A 
ATOM     25  C   UNL     1      15.525  27.957  13.206  0.00  0.00    +0.015 A 
BRANCH  20  30
ATOM     26  C   UNL     1      17.778  29.576   9.255  0.00  0.00    +0.110 C 
ATOM     27  N   UNL     1      16.644  30.399   8.935  0.00  0.00    -0.214 NA
ATOM     28  C   UNL     1      15.383  29.742   9.221  0.00  0.00    +0.110 C 
ATOM     29  C   UNL     1      15.326  29.118  10.612  0.00  0.00    +0.110 C 
ATOM     30  N   UNL     1      16.427  28.231  10.909  0.00  0.00    -0.305 N 
ATOM     31  C   UNL     1      17.673  28.892  10.614  0.00  0.00    +0.110 C 
ENDBRANCH  20  30
ENDBRANCH   1  23
TORSDOF 3
ENDMDL
