MODEL 1
REMARK VINA RESULT:      -7.9      0.000      0.000
REMARK  Name = 4BGG_844.pdb
REMARK  6 active torsions:
REMARK  status: ('A' for Active; 'I' for Inactive)
REMARK    1  A    between atoms: _2  and  _3
REMARK    2  A    between atoms: _4  and  _5
REMARK    3  A    between atoms: _7  and  _29
REMARK    4  A    between atoms: _9  and  _11
REMARK    5  A    between atoms: _13  and  _17
REMARK    6  A    between atoms: _20  and  _23
REMARK                            x       y       z     vdW  Elec       q    Type
REMARK                         _______ _______ _______ _____ _____    ______ ____
ROOT
ATOM      1  C   UNL     1      16.350  22.263  16.837  0.00  0.00    +0.019 A 
ATOM      2  C   UNL     1      16.989  21.134  16.327  0.00  0.00    +0.099 A 
ATOM      3  N   UNL     1      17.392  21.143  15.068  0.00  0.00    -0.242 NA
ATOM      4  C   UNL     1      17.225  22.205  14.222  0.00  0.00    +0.099 A 
ATOM      5  C   UNL     1      16.586  23.353  14.701  0.00  0.00    +0.019 A 
ATOM      6  C   UNL     1      16.162  23.398  16.011  0.00  0.00    +0.003 A 
ENDROOT
BRANCH   1   9
ATOM      7  C   UNL     1      16.202  22.905  20.635  0.00  0.00    +0.175 A 
ATOM      8  C   UNL     1      16.703  22.811  19.337  0.00  0.00    +0.040 A 
ATOM      9  C   UNL     1      15.840  22.336  18.290  0.00  0.00    +0.008 A 
ATOM     10  C   UNL     1      14.515  21.960  18.594  0.00  0.00    +0.040 A 
ATOM     11  C   UNL     1      14.043  22.017  19.964  0.00  0.00    +0.175 A 
ATOM     12  C   UNL     1      14.875  22.521  20.955  0.00  0.00    +0.206 A 
BRANCH   7  14
ATOM     13  C   UNL     1      18.328  23.273  21.436  0.00  0.00    +0.253 C 
ATOM     14  O   UNL     1      16.986  23.344  21.688  0.00  0.00    -0.468 OA
ENDBRANCH   7  14
BRANCH  11  15
ATOM     15  O   UNL     1      12.736  21.675  20.354  0.00  0.00    -0.468 OA
ATOM     16  C   UNL     1      11.668  22.374  19.892  0.00  0.00    +0.253 C 
ENDBRANCH  11  15
BRANCH  12  17
ATOM     17  O   UNL     1      14.460  22.625  22.288  0.00  0.00    -0.465 OA
ATOM     18  C   UNL     1      13.842  23.844  22.610  0.00  0.00    +0.253 C 
ENDBRANCH  12  17
ENDBRANCH   1   9
BRANCH   5  19
ATOM     19  C   UNL     1      16.404  24.535  13.854  0.00  0.00    +0.002 A 
ATOM     20  C   UNL     1      17.484  25.086  13.171  0.00  0.00    +0.001 A 
ATOM     21  C   UNL     1      17.322  26.240  12.294  0.00  0.00    +0.015 A 
ATOM     22  C   UNL     1      16.118  26.811  12.138  0.00  0.00    +0.048 A 
ATOM     23  C   UNL     1      14.996  26.252  12.827  0.00  0.00    +0.015 A 
ATOM     24  C   UNL     1      15.145  25.078  13.678  0.00  0.00    +0.001 A 
BRANCH  22  25
ATOM     25  N   UNL     1      15.977  27.923  11.293  0.00  0.00    -0.305 N 
ATOM     26  C   UNL     1      15.162  27.775  10.138  0.00  0.00    +0.110 C 
ATOM     27  C   UNL     1      14.762  29.135   9.578  0.00  0.00    +0.110 C 
ATOM     28  N   UNL     1      15.914  29.803   9.043  0.00  0.00    -0.214 NA
ATOM     29  C   UNL     1      17.060  29.748   9.894  0.00  0.00    +0.110 C 
ATOM     30  C   UNL     1      16.787  29.123  11.275  0.00  0.00    +0.110 C 
ENDBRANCH  22  25
ENDBRANCH   5  19
TORSDOF 6
ENDMDL
MODEL 2
REMARK VINA RESULT:      -7.8      1.370      2.672
REMARK  Name = 4BGG_844.pdb
REMARK  6 active torsions:
REMARK  status: ('A' for Active; 'I' for Inactive)
REMARK    1  A    between atoms: _2  and  _3
REMARK    2  A    between atoms: _4  and  _5
REMARK    3  A    between atoms: _7  and  _29
REMARK    4  A    between atoms: _9  and  _11
REMARK    5  A    between atoms: _13  and  _17
REMARK    6  A    between atoms: _20  and  _23
REMARK                            x       y       z     vdW  Elec       q    Type
REMARK                         _______ _______ _______ _____ _____    ______ ____
ROOT
ATOM      1  C   UNL     1      16.679  22.943  16.568  0.00  0.00    +0.019 A 
ATOM      2  C   UNL     1      16.819  21.657  16.049  0.00  0.00    +0.099 A 
ATOM      3  N   UNL     1      16.928  21.507  14.740  0.00  0.00    -0.242 NA
ATOM      4  C   UNL     1      16.918  22.545  13.849  0.00  0.00    +0.099 A 
ATOM      5  C   UNL     1      16.778  23.848  14.337  0.00  0.00    +0.019 A 
ATOM      6  C   UNL     1      16.677  24.059  15.695  0.00  0.00    +0.003 A 
ENDROOT
BRANCH   1   9
ATOM      7  C   UNL     1      15.228  24.012  19.977  0.00  0.00    +0.175 A 
ATOM      8  C   UNL     1      15.344  23.821  18.600  0.00  0.00    +0.040 A 
ATOM      9  C   UNL     1      16.537  23.210  18.081  0.00  0.00    +0.008 A 
ATOM     10  C   UNL     1      17.570  22.832  18.964  0.00  0.00    +0.040 A 
ATOM     11  C   UNL     1      17.440  23.095  20.384  0.00  0.00    +0.175 A 
ATOM     12  C   UNL     1      16.262  23.645  20.874  0.00  0.00    +0.206 A 
BRANCH   7  14
ATOM     13  C   UNL     1      12.949  24.318  19.872  0.00  0.00    +0.253 C 
ATOM     14  O   UNL     1      14.109  24.605  20.537  0.00  0.00    -0.468 OA
ENDBRANCH   7  14
BRANCH  11  15
ATOM     15  O   UNL     1      18.412  22.740  21.336  0.00  0.00    -0.468 OA
ATOM     16  C   UNL     1      19.103  21.578  21.222  0.00  0.00    +0.253 C 
ENDBRANCH  11  15
BRANCH  12  17
ATOM     17  O   UNL     1      16.072  23.894  22.238  0.00  0.00    -0.465 OA
ATOM     18  C   UNL     1      15.453  22.847  22.939  0.00  0.00    +0.253 C 
ENDBRANCH  12  17
ENDBRANCH   1   9
BRANCH   5  19
ATOM     19  C   UNL     1      16.792  25.005  13.439  0.00  0.00    +0.002 A 
ATOM     20  C   UNL     1      15.635  25.748  13.227  0.00  0.00    +0.001 A 
ATOM     21  C   UNL     1      15.632  26.925  12.366  0.00  0.00    +0.015 A 
ATOM     22  C   UNL     1      16.753  27.312  11.739  0.00  0.00    +0.048 A 
ATOM     23  C   UNL     1      17.953  26.563  11.952  0.00  0.00    +0.015 A 
ATOM     24  C   UNL     1      17.971  25.406  12.839  0.00  0.00    +0.001 A 
BRANCH  22  25
ATOM     25  N   UNL     1      16.736  28.445  10.911  0.00  0.00    -0.305 N 
ATOM     26  C   UNL     1      15.775  28.484   9.865  0.00  0.00    +0.110 C 
ATOM     27  C   UNL     1      15.589  29.906   9.350  0.00  0.00    +0.110 C 
ATOM     28  N   UNL     1      16.778  30.341   8.674  0.00  0.00    -0.214 NA
ATOM     29  C   UNL     1      17.984  30.044   9.380  0.00  0.00    +0.110 C 
ATOM     30  C   UNL     1      17.762  29.460  10.787  0.00  0.00    +0.110 C 
ENDBRANCH  22  25
ENDBRANCH   5  19
TORSDOF 6
ENDMDL
MODEL 3
REMARK VINA RESULT:      -7.7      2.469      4.303
REMARK  Name = 4BGG_844.pdb
REMARK  6 active torsions:
REMARK  status: ('A' for Active; 'I' for Inactive)
REMARK    1  A    between atoms: _2  and  _3
REMARK    2  A    between atoms: _4  and  _5
REMARK    3  A    between atoms: _7  and  _29
REMARK    4  A    between atoms: _9  and  _11
REMARK    5  A    between atoms: _13  and  _17
REMARK    6  A    between atoms: _20  and  _23
REMARK                            x       y       z     vdW  Elec       q    Type
REMARK                         _______ _______ _______ _____ _____    ______ ____
ROOT
ATOM      1  C   UNL     1      16.851  22.922  20.648  0.00  0.00    +0.019 A 
ATOM      2  C   UNL     1      18.043  22.413  21.164  0.00  0.00    +0.099 A 
ATOM      3  N   UNL     1      19.168  22.636  20.507  0.00  0.00    -0.242 NA
ATOM      4  C   UNL     1      19.242  23.347  19.341  0.00  0.00    +0.099 A 
ATOM      5  C   UNL     1      18.065  23.869  18.795  0.00  0.00    +0.019 A 
ATOM      6  C   UNL     1      16.869  23.678  19.450  0.00  0.00    +0.003 A 
ENDROOT
BRANCH   1   9
ATOM      7  C   UNL     1      13.133  22.093  21.238  0.00  0.00    +0.175 A 
ATOM      8  C   UNL     1      14.338  22.323  20.576  0.00  0.00    +0.040 A 
ATOM      9  C   UNL     1      15.492  22.703  21.344  0.00  0.00    +0.008 A 
ATOM     10  C   UNL     1      15.384  22.851  22.743  0.00  0.00    +0.040 A 
ATOM     11  C   UNL     1      14.102  22.658  23.393  0.00  0.00    +0.175 A 
ATOM     12  C   UNL     1      13.008  22.247  22.642  0.00  0.00    +0.206 A 
BRANCH   7  14
ATOM     13  C   UNL     1      11.593  22.658  19.623  0.00  0.00    +0.253 C 
ATOM     14  O   UNL     1      11.983  21.735  20.554  0.00  0.00    -0.468 OA
ENDBRANCH   7  14
BRANCH  11  15
ATOM     15  O   UNL     1      13.905  22.772  24.781  0.00  0.00    -0.468 OA
ATOM     16  C   UNL     1      14.519  21.919  25.640  0.00  0.00    +0.253 C 
ENDBRANCH  11  15
BRANCH  12  17
ATOM     17  O   UNL     1      11.755  22.019  23.223  0.00  0.00    -0.465 OA
ATOM     18  C   UNL     1      11.546  20.698  23.650  0.00  0.00    +0.253 C 
ENDBRANCH  12  17
ENDBRANCH   1   9
BRANCH   5  19
ATOM     19  C   UNL     1      18.082  24.666  17.565  0.00  0.00    +0.002 A 
ATOM     20  C   UNL     1      17.301  24.297  16.475  0.00  0.00    +0.001 A 
ATOM     21  C   UNL     1      17.273  25.094  15.254  0.00  0.00    +0.015 A 
ATOM     22  C   UNL     1      18.020  26.203  15.148  0.00  0.00    +0.048 A 
ATOM     23  C   UNL     1      18.823  26.600  16.263  0.00  0.00    +0.015 A 
ATOM     24  C   UNL     1      18.830  25.827  17.499  0.00  0.00    +0.001 A 
BRANCH  22  25
ATOM     25  N   UNL     1      17.986  26.959  13.966  0.00  0.00    -0.305 N 
ATOM     26  C   UNL     1      17.012  27.988  13.868  0.00  0.00    +0.110 C 
ATOM     27  C   UNL     1      17.368  28.971  12.760  0.00  0.00    +0.110 C 
ATOM     28  N   UNL     1      17.249  28.331  11.481  0.00  0.00    -0.214 NA
ATOM     29  C   UNL     1      17.840  27.031  11.429  0.00  0.00    +0.110 C 
ATOM     30  C   UNL     1      18.617  26.643  12.701  0.00  0.00    +0.110 C 
ENDBRANCH  22  25
ENDBRANCH   5  19
TORSDOF 6
ENDMDL
MODEL 4
REMARK VINA RESULT:      -7.6      2.474      3.856
REMARK  Name = 4BGG_844.pdb
REMARK  6 active torsions:
REMARK  status: ('A' for Active; 'I' for Inactive)
REMARK    1  A    between atoms: _2  and  _3
REMARK    2  A    between atoms: _4  and  _5
REMARK    3  A    between atoms: _7  and  _29
REMARK    4  A    between atoms: _9  and  _11
REMARK    5  A    between atoms: _13  and  _17
REMARK    6  A    between atoms: _20  and  _23
REMARK                            x       y       z     vdW  Elec       q    Type
REMARK                         _______ _______ _______ _____ _____    ______ ____
ROOT
ATOM      1  C   UNL     1      16.804  22.864  20.574  0.00  0.00    +0.019 A 
ATOM      2  C   UNL     1      17.990  22.375  21.119  0.00  0.00    +0.099 A 
ATOM      3  N   UNL     1      19.129  22.628  20.499  0.00  0.00    -0.242 NA
ATOM      4  C   UNL     1      19.223  23.355  19.343  0.00  0.00    +0.099 A 
ATOM      5  C   UNL     1      18.052  23.859  18.768  0.00  0.00    +0.019 A 
ATOM      6  C   UNL     1      16.841  23.635  19.386  0.00  0.00    +0.003 A 
ENDROOT
BRANCH   1   9
ATOM      7  C   UNL     1      14.015  22.503  23.211  0.00  0.00    +0.175 A 
ATOM      8  C   UNL     1      15.279  22.697  22.653  0.00  0.00    +0.040 A 
ATOM      9  C   UNL     1      15.430  22.609  21.226  0.00  0.00    +0.008 A 
ATOM     10  C   UNL     1      14.310  22.314  20.421  0.00  0.00    +0.040 A 
ATOM     11  C   UNL     1      13.022  22.062  21.039  0.00  0.00    +0.175 A 
ATOM     12  C   UNL     1      12.884  22.196  22.414  0.00  0.00    +0.206 A 
BRANCH   7  14
ATOM     13  C   UNL     1      14.658  21.769  25.296  0.00  0.00    +0.253 C 
ATOM     14  O   UNL     1      13.807  22.563  24.579  0.00  0.00    -0.468 OA
ENDBRANCH   7  14
BRANCH  11  15
ATOM     15  O   UNL     1      11.852  21.774  20.314  0.00  0.00    -0.468 OA
ATOM     16  C   UNL     1      11.261  22.723  19.544  0.00  0.00    +0.253 C 
ENDBRANCH  11  15
BRANCH  12  17
ATOM     17  O   UNL     1      11.658  21.992  23.058  0.00  0.00    -0.465 OA
ATOM     18  C   UNL     1      11.395  20.655  23.397  0.00  0.00    +0.253 C 
ENDBRANCH  12  17
ENDBRANCH   1   9
BRANCH   5  19
ATOM     19  C   UNL     1      18.088  24.670  17.549  0.00  0.00    +0.002 A 
ATOM     20  C   UNL     1      17.314  24.321  16.446  0.00  0.00    +0.001 A 
ATOM     21  C   UNL     1      17.306  25.133  15.234  0.00  0.00    +0.015 A 
ATOM     22  C   UNL     1      18.064  26.236  15.149  0.00  0.00    +0.048 A 
ATOM     23  C   UNL     1      18.859  26.613  16.278  0.00  0.00    +0.015 A 
ATOM     24  C   UNL     1      18.846  25.825  17.504  0.00  0.00    +0.001 A 
BRANCH  22  25
ATOM     25  N   UNL     1      18.048  27.007  13.976  0.00  0.00    -0.305 N 
ATOM     26  C   UNL     1      17.154  28.110  13.923  0.00  0.00    +0.110 C 
ATOM     27  C   UNL     1      17.548  29.075  12.811  0.00  0.00    +0.110 C 
ATOM     28  N   UNL     1      17.335  28.461  11.531  0.00  0.00    -0.214 NA
ATOM     29  C   UNL     1      17.820  27.120  11.447  0.00  0.00    +0.110 C 
ATOM     30  C   UNL     1      18.608  26.658  12.687  0.00  0.00    +0.110 C 
ENDBRANCH  22  25
ENDBRANCH   5  19
TORSDOF 6
ENDMDL
MODEL 5
REMARK VINA RESULT:      -7.5      4.600     10.521
REMARK  Name = 4BGG_844.pdb
REMARK  6 active torsions:
REMARK  status: ('A' for Active; 'I' for Inactive)
REMARK    1  A    between atoms: _2  and  _3
REMARK    2  A    between atoms: _4  and  _5
REMARK    3  A    between atoms: _7  and  _29
REMARK    4  A    between atoms: _9  and  _11
REMARK    5  A    between atoms: _13  and  _17
REMARK    6  A    between atoms: _20  and  _23
REMARK                            x       y       z     vdW  Elec       q    Type
REMARK                         _______ _______ _______ _____ _____    ______ ____
ROOT
ATOM      1  C   UNL     1      17.071  24.145  17.805  0.00  0.00    +0.019 A 
ATOM      2  C   UNL     1      18.447  23.994  17.970  0.00  0.00    +0.099 A 
ATOM      3  N   UNL     1      18.908  23.581  19.137  0.00  0.00    -0.242 NA
ATOM      4  C   UNL     1      18.112  23.282  20.209  0.00  0.00    +0.099 A 
ATOM      5  C   UNL     1      16.726  23.424  20.078  0.00  0.00    +0.019 A 
ATOM      6  C   UNL     1      16.196  23.837  18.876  0.00  0.00    +0.003 A 
ENDROOT
BRANCH   1   9
ATOM      7  C   UNL     1      14.552  25.528  15.235  0.00  0.00    +0.175 A 
ATOM      8  C   UNL     1      15.076  25.057  16.438  0.00  0.00    +0.040 A 
ATOM      9  C   UNL     1      16.448  24.629  16.480  0.00  0.00    +0.008 A 
ATOM     10  C   UNL     1      17.231  24.676  15.307  0.00  0.00    +0.040 A 
ATOM     11  C   UNL     1      16.639  25.120  14.060  0.00  0.00    +0.175 A 
ATOM     12  C   UNL     1      15.326  25.573  14.047  0.00  0.00    +0.206 A 
BRANCH   7  14
ATOM     13  C   UNL     1      12.831  26.744  16.161  0.00  0.00    +0.253 C 
ATOM     14  O   UNL     1      13.236  25.945  15.128  0.00  0.00    -0.468 OA
ENDBRANCH   7  14
BRANCH  11  15
ATOM     15  O   UNL     1      17.347  25.212  12.849  0.00  0.00    -0.468 OA
ATOM     16  C   UNL     1      18.445  26.002  12.746  0.00  0.00    +0.253 C 
ENDBRANCH  11  15
BRANCH  12  17
ATOM     17  O   UNL     1      14.714  26.038  12.878  0.00  0.00    -0.465 OA
ATOM     18  C   UNL     1      14.906  27.406  12.627  0.00  0.00    +0.253 C 
ENDBRANCH  12  17
ENDBRANCH   1   9
BRANCH   5  19
ATOM     19  C   UNL     1      15.818  23.091  21.178  0.00  0.00    +0.002 A 
ATOM     20  C   UNL     1      16.219  23.256  22.500  0.00  0.00    +0.001 A 
ATOM     21  C   UNL     1      15.320  22.966  23.611  0.00  0.00    +0.015 A 
ATOM     22  C   UNL     1      14.079  22.513  23.381  0.00  0.00    +0.048 A 
ATOM     23  C   UNL     1      13.648  22.345  22.027  0.00  0.00    +0.015 A 
ATOM     24  C   UNL     1      14.530  22.666  20.912  0.00  0.00    +0.001 A 
BRANCH  22  25
ATOM     25  N   UNL     1      13.225  22.235  24.460  0.00  0.00    -0.305 N 
ATOM     26  C   UNL     1      13.702  22.514  25.768  0.00  0.00    +0.110 C 
ATOM     27  C   UNL     1      12.551  22.575  26.765  0.00  0.00    +0.110 C 
ATOM     28  N   UNL     1      11.979  21.269  26.933  0.00  0.00    -0.214 NA
ATOM     29  C   UNL     1      11.755  20.576  25.704  0.00  0.00    +0.110 C 
ATOM     30  C   UNL     1      12.027  21.422  24.446  0.00  0.00    +0.110 C 
ENDBRANCH  22  25
ENDBRANCH   5  19
TORSDOF 6
ENDMDL
MODEL 6
REMARK VINA RESULT:      -7.5      4.560     10.320
REMARK  Name = 4BGG_844.pdb
REMARK  6 active torsions:
REMARK  status: ('A' for Active; 'I' for Inactive)
REMARK    1  A    between atoms: _2  and  _3
REMARK    2  A    between atoms: _4  and  _5
REMARK    3  A    between atoms: _7  and  _29
REMARK    4  A    between atoms: _9  and  _11
REMARK    5  A    between atoms: _13  and  _17
REMARK    6  A    between atoms: _20  and  _23
REMARK                            x       y       z     vdW  Elec       q    Type
REMARK                         _______ _______ _______ _____ _____    ______ ____
ROOT
ATOM      1  C   UNL     1      17.104  24.198  17.794  0.00  0.00    +0.019 A 
ATOM      2  C   UNL     1      18.479  24.039  17.965  0.00  0.00    +0.099 A 
ATOM      3  N   UNL     1      18.931  23.608  19.130  0.00  0.00    -0.242 NA
ATOM      4  C   UNL     1      18.127  23.298  20.193  0.00  0.00    +0.099 A 
ATOM      5  C   UNL     1      16.743  23.448  20.056  0.00  0.00    +0.019 A 
ATOM      6  C   UNL     1      16.222  23.879  18.856  0.00  0.00    +0.003 A 
ENDROOT
BRANCH   1   9
ATOM      7  C   UNL     1      16.729  25.820  14.317  0.00  0.00    +0.175 A 
ATOM      8  C   UNL     1      17.302  25.412  15.522  0.00  0.00    +0.040 A 
ATOM      9  C   UNL     1      16.491  24.702  16.473  0.00  0.00    +0.008 A 
ATOM     10  C   UNL     1      15.134  24.446  16.180  0.00  0.00    +0.040 A 
ATOM     11  C   UNL     1      14.557  24.932  14.943  0.00  0.00    +0.175 A 
ATOM     12  C   UNL     1      15.366  25.576  14.015  0.00  0.00    +0.206 A 
BRANCH   7  14
ATOM     13  C   UNL     1      18.344  25.737  12.678  0.00  0.00    +0.253 C 
ATOM     14  O   UNL     1      17.455  26.517  13.366  0.00  0.00    -0.468 OA
ENDBRANCH   7  14
BRANCH  11  15
ATOM     15  O   UNL     1      13.220  24.711  14.565  0.00  0.00    -0.468 OA
ATOM     16  C   UNL     1      12.776  23.458  14.288  0.00  0.00    +0.253 C 
ENDBRANCH  11  15
BRANCH  12  17
ATOM     17  O   UNL     1      14.867  26.041  12.793  0.00  0.00    -0.465 OA
ATOM     18  C   UNL     1      14.394  27.362  12.824  0.00  0.00    +0.253 C 
ENDBRANCH  12  17
ENDBRANCH   1   9
BRANCH   5  19
ATOM     19  C   UNL     1      15.827  23.104  21.146  0.00  0.00    +0.002 A 
ATOM     20  C   UNL     1      16.227  23.236  22.472  0.00  0.00    +0.001 A 
ATOM     21  C   UNL     1      15.320  22.934  23.574  0.00  0.00    +0.015 A 
ATOM     22  C   UNL     1      14.073  22.502  23.331  0.00  0.00    +0.048 A 
ATOM     23  C   UNL     1      13.645  22.369  21.973  0.00  0.00    +0.015 A 
ATOM     24  C   UNL     1      14.534  22.701  20.867  0.00  0.00    +0.001 A 
BRANCH  22  25
ATOM     25  N   UNL     1      13.213  22.213  24.401  0.00  0.00    -0.305 N 
ATOM     26  C   UNL     1      13.672  22.502  25.714  0.00  0.00    +0.110 C 
ATOM     27  C   UNL     1      12.509  22.546  26.699  0.00  0.00    +0.110 C 
ATOM     28  N   UNL     1      11.955  21.232  26.863  0.00  0.00    -0.214 NA
ATOM     29  C   UNL     1      11.756  20.533  25.633  0.00  0.00    +0.110 C 
ATOM     30  C   UNL     1      12.028  21.381  24.376  0.00  0.00    +0.110 C 
ENDBRANCH  22  25
ENDBRANCH   5  19
TORSDOF 6
ENDMDL
MODEL 7
REMARK VINA RESULT:      -7.4      1.169      2.674
REMARK  Name = 4BGG_844.pdb
REMARK  6 active torsions:
REMARK  status: ('A' for Active; 'I' for Inactive)
REMARK    1  A    between atoms: _2  and  _3
REMARK    2  A    between atoms: _4  and  _5
REMARK    3  A    between atoms: _7  and  _29
REMARK    4  A    between atoms: _9  and  _11
REMARK    5  A    between atoms: _13  and  _17
REMARK    6  A    between atoms: _20  and  _23
REMARK                            x       y       z     vdW  Elec       q    Type
REMARK                         _______ _______ _______ _____ _____    ______ ____
ROOT
ATOM      1  C   UNL     1      15.590  22.620  16.780  0.00  0.00    +0.019 A 
ATOM      2  C   UNL     1      16.314  21.467  16.480  0.00  0.00    +0.099 A 
ATOM      3  N   UNL     1      16.982  21.412  15.341  0.00  0.00    -0.242 NA
ATOM      4  C   UNL     1      17.017  22.429  14.427  0.00  0.00    +0.099 A 
ATOM      5  C   UNL     1      16.301  23.600  14.696  0.00  0.00    +0.019 A 
ATOM      6  C   UNL     1      15.600  23.712  15.877  0.00  0.00    +0.003 A 
ENDROOT
BRANCH   1   9
ATOM      7  C   UNL     1      12.649  23.137  19.218  0.00  0.00    +0.175 A 
ATOM      8  C   UNL     1      13.368  23.051  18.026  0.00  0.00    +0.040 A 
ATOM      9  C   UNL     1      14.776  22.767  18.081  0.00  0.00    +0.008 A 
ATOM     10  C   UNL     1      15.406  22.598  19.332  0.00  0.00    +0.040 A 
ATOM     11  C   UNL     1      14.641  22.749  20.554  0.00  0.00    +0.175 A 
ATOM     12  C   UNL     1      13.273  22.978  20.482  0.00  0.00    +0.206 A 
BRANCH   7  14
ATOM     13  C   UNL     1      10.954  24.506  18.476  0.00  0.00    +0.253 C 
ATOM     14  O   UNL     1      11.294  23.418  19.232  0.00  0.00    -0.468 OA
ENDBRANCH   7  14
BRANCH  11  15
ATOM     15  O   UNL     1      15.184  22.585  21.841  0.00  0.00    -0.468 OA
ATOM     16  C   UNL     1      16.206  23.369  22.268  0.00  0.00    +0.253 C 
ENDBRANCH  11  15
BRANCH  12  17
ATOM     17  O   UNL     1      12.482  23.104  21.629  0.00  0.00    -0.465 OA
ATOM     18  C   UNL     1      11.949  21.894  22.102  0.00  0.00    +0.253 C 
ENDBRANCH  12  17
ENDBRANCH   1   9
BRANCH   5  19
ATOM     19  C   UNL     1      16.322  24.737  13.773  0.00  0.00    +0.002 A 
ATOM     20  C   UNL     1      17.511  25.133  13.168  0.00  0.00    +0.001 A 
ATOM     21  C   UNL     1      17.551  26.238  12.218  0.00  0.00    +0.015 A 
ATOM     22  C   UNL     1      16.434  26.916  11.914  0.00  0.00    +0.048 A 
ATOM     23  C   UNL     1      15.202  26.516  12.522  0.00  0.00    +0.015 A 
ATOM     24  C   UNL     1      15.148  25.391  13.446  0.00  0.00    +0.001 A 
BRANCH  22  25
ATOM     25  N   UNL     1      16.487  27.979  11.000  0.00  0.00    -0.305 N 
ATOM     26  C   UNL     1      17.055  29.204  11.444  0.00  0.00    +0.110 C 
ATOM     27  C   UNL     1      17.433  30.088  10.262  0.00  0.00    +0.110 C 
ATOM     28  N   UNL     1      16.249  30.538   9.588  0.00  0.00    -0.214 NA
ATOM     29  C   UNL     1      15.286  29.508   9.363  0.00  0.00    +0.110 C 
ATOM     30  C   UNL     1      15.772  28.098   9.746  0.00  0.00    +0.110 C 
ENDBRANCH  22  25
ENDBRANCH   5  19
TORSDOF 6
ENDMDL
MODEL 8
REMARK VINA RESULT:      -7.3      1.971      3.268
REMARK  Name = 4BGG_844.pdb
REMARK  6 active torsions:
REMARK  status: ('A' for Active; 'I' for Inactive)
REMARK    1  A    between atoms: _2  and  _3
REMARK    2  A    between atoms: _4  and  _5
REMARK    3  A    between atoms: _7  and  _29
REMARK    4  A    between atoms: _9  and  _11
REMARK    5  A    between atoms: _13  and  _17
REMARK    6  A    between atoms: _20  and  _23
REMARK                            x       y       z     vdW  Elec       q    Type
REMARK                         _______ _______ _______ _____ _____    ______ ____
ROOT
ATOM      1  C   UNL     1      14.689  23.003  17.917  0.00  0.00    +0.019 A 
ATOM      2  C   UNL     1      15.872  22.517  18.473  0.00  0.00    +0.099 A 
ATOM      3  N   UNL     1      17.010  22.733  17.838  0.00  0.00    -0.242 NA
ATOM      4  C   UNL     1      17.108  23.416  16.656  0.00  0.00    +0.099 A 
ATOM      5  C   UNL     1      15.940  23.916  16.070  0.00  0.00    +0.019 A 
ATOM      6  C   UNL     1      14.730  23.731  16.702  0.00  0.00    +0.003 A 
ENDROOT
BRANCH   1   9
ATOM      7  C   UNL     1      11.959  21.870  20.392  0.00  0.00    +0.175 A 
ATOM      8  C   UNL     1      13.208  22.010  19.787  0.00  0.00    +0.040 A 
ATOM      9  C   UNL     1      13.316  22.791  18.585  0.00  0.00    +0.008 A 
ATOM     10  C   UNL     1      12.162  23.384  18.031  0.00  0.00    +0.040 A 
ATOM     11  C   UNL     1      10.870  23.172  18.655  0.00  0.00    +0.175 A 
ATOM     12  C   UNL     1      10.791  22.453  19.841  0.00  0.00    +0.206 A 
BRANCH   7  14
ATOM     13  C   UNL     1      12.400  21.664  22.642  0.00  0.00    +0.253 C 
ATOM     14  O   UNL     1      11.789  21.122  21.544  0.00  0.00    -0.468 OA
ENDBRANCH   7  14
BRANCH  11  15
ATOM     15  O   UNL     1       9.672  23.735  18.180  0.00  0.00    -0.468 OA
ATOM     16  C   UNL     1       9.046  23.219  17.091  0.00  0.00    +0.253 C 
ENDBRANCH  11  15
BRANCH  12  17
ATOM     17  O   UNL     1       9.574  22.243  20.499  0.00  0.00    -0.465 OA
ATOM     18  C   UNL     1       9.284  23.185  21.499  0.00  0.00    +0.253 C 
ENDBRANCH  12  17
ENDBRANCH   1   9
BRANCH   5  19
ATOM     19  C   UNL     1      15.980  24.683  14.823  0.00  0.00    +0.002 A 
ATOM     20  C   UNL     1      14.841  25.329  14.355  0.00  0.00    +0.001 A 
ATOM     21  C   UNL     1      14.865  26.128  13.135  0.00  0.00    +0.015 A 
ATOM     22  C   UNL     1      15.995  26.246  12.421  0.00  0.00    +0.048 A 
ATOM     23  C   UNL     1      17.178  25.595  12.894  0.00  0.00    +0.015 A 
ATOM     24  C   UNL     1      17.169  24.822  14.130  0.00  0.00    +0.001 A 
BRANCH  22  25
ATOM     25  N   UNL     1      16.004  27.017  11.248  0.00  0.00    -0.305 N 
ATOM     26  C   UNL     1      17.119  27.868  11.025  0.00  0.00    +0.110 C 
ATOM     27  C   UNL     1      17.197  28.290   9.563  0.00  0.00    +0.110 C 
ATOM     28  N   UNL     1      16.097  29.155   9.243  0.00  0.00    -0.214 NA
ATOM     29  C   UNL     1      14.838  28.691   9.733  0.00  0.00    +0.110 C 
ATOM     30  C   UNL     1      14.887  27.289  10.367  0.00  0.00    +0.110 C 
ENDBRANCH  22  25
ENDBRANCH   5  19
TORSDOF 6
ENDMDL
MODEL 9
REMARK VINA RESULT:      -7.2      4.335      9.748
REMARK  Name = 4BGG_844.pdb
REMARK  6 active torsions:
REMARK  status: ('A' for Active; 'I' for Inactive)
REMARK    1  A    between atoms: _2  and  _3
REMARK    2  A    between atoms: _4  and  _5
REMARK    3  A    between atoms: _7  and  _29
REMARK    4  A    between atoms: _9  and  _11
REMARK    5  A    between atoms: _13  and  _17
REMARK    6  A    between atoms: _20  and  _23
REMARK                            x       y       z     vdW  Elec       q    Type
REMARK                         _______ _______ _______ _____ _____    ______ ____
ROOT
ATOM      1  C   UNL     1      16.891  23.807  15.234  0.00  0.00    +0.019 A 
ATOM      2  C   UNL     1      16.992  22.643  14.473  0.00  0.00    +0.099 A 
ATOM      3  N   UNL     1      16.639  21.492  15.019  0.00  0.00    -0.242 NA
ATOM      4  C   UNL     1      16.169  21.367  16.298  0.00  0.00    +0.099 A 
ATOM      5  C   UNL     1      16.057  22.515  17.089  0.00  0.00    +0.019 A 
ATOM      6  C   UNL     1      16.398  23.741  16.560  0.00  0.00    +0.003 A 
ENDROOT
BRANCH   1   9
ATOM      7  C   UNL     1      18.149  27.446  15.032  0.00  0.00    +0.175 A 
ATOM      8  C   UNL     1      17.757  26.219  15.567  0.00  0.00    +0.040 A 
ATOM      9  C   UNL     1      17.289  25.190  14.680  0.00  0.00    +0.008 A 
ATOM     10  C   UNL     1      17.217  25.443  13.293  0.00  0.00    +0.040 A 
ATOM     11  C   UNL     1      17.580  26.748  12.776  0.00  0.00    +0.175 A 
ATOM     12  C   UNL     1      18.073  27.715  13.642  0.00  0.00    +0.206 A 
BRANCH   7  14
ATOM     13  C   UNL     1      17.811  28.701  16.932  0.00  0.00    +0.253 C 
ATOM     14  O   UNL     1      18.598  28.480  15.836  0.00  0.00    -0.468 OA
ENDBRANCH   7  14
BRANCH  11  15
ATOM     15  O   UNL     1      17.552  27.082  11.411  0.00  0.00    -0.468 OA
ATOM     16  C   UNL     1      16.374  27.173  10.742  0.00  0.00    +0.253 C 
ENDBRANCH  11  15
BRANCH  12  17
ATOM     17  O   UNL     1      18.464  28.982  13.193  0.00  0.00    -0.465 OA
ATOM     18  C   UNL     1      17.422  29.921  13.128  0.00  0.00    +0.253 C 
ENDBRANCH  12  17
ENDBRANCH   1   9
BRANCH   5  19
ATOM     19  C   UNL     1      15.532  22.453  18.455  0.00  0.00    +0.002 A 
ATOM     20  C   UNL     1      16.291  22.917  19.525  0.00  0.00    +0.001 A 
ATOM     21  C   UNL     1      15.776  22.898  20.889  0.00  0.00    +0.015 A 
ATOM     22  C   UNL     1      14.552  22.414  21.148  0.00  0.00    +0.048 A 
ATOM     23  C   UNL     1      13.756  21.941  20.058  0.00  0.00    +0.015 A 
ATOM     24  C   UNL     1      14.251  21.988  18.688  0.00  0.00    +0.001 A 
BRANCH  22  25
ATOM     25  N   UNL     1      14.070  22.400  22.466  0.00  0.00    -0.305 N 
ATOM     26  C   UNL     1      15.020  22.499  23.517  0.00  0.00    +0.110 C 
ATOM     27  C   UNL     1      14.345  22.900  24.823  0.00  0.00    +0.110 C 
ATOM     28  N   UNL     1      13.502  21.835  25.287  0.00  0.00    -0.214 NA
ATOM     29  C   UNL     1      12.683  21.263  24.266  0.00  0.00    +0.110 C 
ATOM     30  C   UNL     1      12.753  22.000  22.916  0.00  0.00    +0.110 C 
ENDBRANCH  22  25
ENDBRANCH   5  19
TORSDOF 6
ENDMDL
