MODEL 1
REMARK VINA RESULT:      -8.6      0.000      0.000
REMARK  Name = 5OY6_B4E.pdb
REMARK  0 active torsions:
REMARK  status: ('A' for Active; 'I' for Inactive)
REMARK                            x       y       z     vdW  Elec       q    Type
REMARK                         _______ _______ _______ _____ _____    ______ ____
ROOT
ATOM      1 CL   UNL     1       6.237  24.247  21.445  0.00  0.00    -0.082 Cl
ATOM      2  C   UNL     1       6.421  23.924  19.734  0.00  0.00    +0.061 A 
ATOM      3  C   UNL     1       6.455  25.003  18.867  0.00  0.00    +0.012 A 
ATOM      4  C   UNL     1       6.591  24.800  17.500  0.00  0.00    +0.008 A 
ATOM      5  C   UNL     1       6.627  25.905  16.646  0.00  0.00    +0.057 A 
ATOM      6  C   UNL     1       6.168  25.959  15.304  0.00  0.00    +0.167 A 
ATOM      7  N   UNL     1       5.590  24.983  14.520  0.00  0.00    -0.210 NA
ATOM      8  C   UNL     1       5.233  25.282  13.258  0.00  0.00    +0.151 A 
ATOM      9  N   UNL     1       4.632  24.281  12.440  0.00  0.00    -0.218 NA
ATOM     10  C   UNL     1       4.131  23.087  13.039  0.00  0.00    +0.146 C 
ATOM     11  C   UNL     1       5.297  22.171  13.319  0.00  0.00    +0.166 C 
ATOM     12  O   UNL     1       5.040  21.570  14.587  0.00  0.00    -0.348 OA
ATOM     13  C   UNL     1       6.104  20.759  15.088  0.00  0.00    +0.189 C 
ATOM     14  C   UNL     1       5.776  20.571  16.546  0.00  0.00    +0.237 C 
ATOM     15  O   UNL     1       6.820  21.092  17.346  0.00  0.00    -0.473 OA
ATOM     16  C   UNL     1       6.671  22.410  17.861  0.00  0.00    +0.140 A 
ATOM     17  C   UNL     1       5.450  26.573  12.752  0.00  0.00    +0.057 A 
ATOM     18  C   UNL     1       6.040  27.535  13.564  0.00  0.00    +0.105 A 
ATOM     19  N   UNL     1       6.379  27.183  14.845  0.00  0.00    -0.211 N 
ATOM     20  N   UNL     1       6.985  27.947  15.825  0.00  0.00    -0.162 NA
ATOM     21  C   UNL     1       7.138  27.172  16.922  0.00  0.00    +0.124 A 
ATOM     22  C   UNL     1       6.705  23.498  16.996  0.00  0.00    +0.037 A 
ATOM     23  C   UNL     1       6.531  22.626  19.235  0.00  0.00    +0.048 A 
ENDROOT
TORSDOF 0
ENDMDL
MODEL 2
REMARK VINA RESULT:      -8.5      2.349      4.721
REMARK  Name = 5OY6_B4E.pdb
REMARK  0 active torsions:
REMARK  status: ('A' for Active; 'I' for Inactive)
REMARK                            x       y       z     vdW  Elec       q    Type
REMARK                         _______ _______ _______ _____ _____    ______ ____
ROOT
ATOM      1 CL   UNL     1       7.201  17.754  14.535  0.00  0.00    -0.082 Cl
ATOM      2  C   UNL     1       6.602  19.308  15.074  0.00  0.00    +0.061 A 
ATOM      3  C   UNL     1       6.259  20.243  14.111  0.00  0.00    +0.012 A 
ATOM      4  C   UNL     1       5.786  21.494  14.486  0.00  0.00    +0.008 A 
ATOM      5  C   UNL     1       5.442  22.418  13.497  0.00  0.00    +0.057 A 
ATOM      6  C   UNL     1       5.528  23.832  13.586  0.00  0.00    +0.167 A 
ATOM      7  N   UNL     1       5.956  24.635  14.623  0.00  0.00    -0.210 NA
ATOM      8  C   UNL     1       5.946  25.971  14.463  0.00  0.00    +0.151 A 
ATOM      9  N   UNL     1       6.389  26.810  15.527  0.00  0.00    -0.218 NA
ATOM     10  C   UNL     1       7.120  26.246  16.614  0.00  0.00    +0.146 C 
ATOM     11  C   UNL     1       6.143  25.568  17.543  0.00  0.00    +0.166 C 
ATOM     12  O   UNL     1       6.768  24.359  17.972  0.00  0.00    -0.348 OA
ATOM     13  C   UNL     1       5.939  23.509  18.765  0.00  0.00    +0.189 C 
ATOM     14  C   UNL     1       6.650  22.180  18.757  0.00  0.00    +0.237 C 
ATOM     15  O   UNL     1       5.814  21.189  18.192  0.00  0.00    -0.473 OA
ATOM     16  C   UNL     1       5.989  20.875  16.815  0.00  0.00    +0.140 A 
ATOM     17  C   UNL     1       5.505  26.533  13.255  0.00  0.00    +0.057 A 
ATOM     18  C   UNL     1       5.075  25.699  12.230  0.00  0.00    +0.105 A 
ATOM     19  N   UNL     1       5.111  24.344  12.438  0.00  0.00    -0.211 N 
ATOM     20  N   UNL     1       4.724  23.324  11.589  0.00  0.00    -0.162 NA
ATOM     21  C   UNL     1       4.924  22.150  12.231  0.00  0.00    +0.124 A 
ATOM     22  C   UNL     1       5.646  21.808  15.844  0.00  0.00    +0.037 A 
ATOM     23  C   UNL     1       6.466  19.619  16.427  0.00  0.00    +0.048 A 
ENDROOT
TORSDOF 0
ENDMDL
MODEL 3
REMARK VINA RESULT:      -8.4      2.701      4.838
REMARK  Name = 5OY6_B4E.pdb
REMARK  0 active torsions:
REMARK  status: ('A' for Active; 'I' for Inactive)
REMARK                            x       y       z     vdW  Elec       q    Type
REMARK                         _______ _______ _______ _____ _____    ______ ____
ROOT
ATOM      1 CL   UNL     1       6.898  19.965  11.215  0.00  0.00    -0.082 Cl
ATOM      2  C   UNL     1       6.387  20.929  12.585  0.00  0.00    +0.061 A 
ATOM      3  C   UNL     1       6.188  22.285  12.388  0.00  0.00    +0.012 A 
ATOM      4  C   UNL     1       5.789  23.095  13.444  0.00  0.00    +0.008 A 
ATOM      5  C   UNL     1       5.591  24.460  13.221  0.00  0.00    +0.057 A 
ATOM      6  C   UNL     1       5.782  25.512  14.153  0.00  0.00    +0.167 A 
ATOM      7  N   UNL     1       6.196  25.472  15.468  0.00  0.00    -0.210 NA
ATOM      8  C   UNL     1       6.303  26.624  16.156  0.00  0.00    +0.151 A 
ATOM      9  N   UNL     1       6.734  26.594  17.515  0.00  0.00    -0.218 NA
ATOM     10  C   UNL     1       7.339  25.414  18.038  0.00  0.00    +0.146 C 
ATOM     11  C   UNL     1       6.248  24.420  18.353  0.00  0.00    +0.166 C 
ATOM     12  O   UNL     1       6.744  23.141  17.962  0.00  0.00    -0.348 OA
ATOM     13  C   UNL     1       5.795  22.078  18.065  0.00  0.00    +0.189 C 
ATOM     14  C   UNL     1       6.399  20.959  17.255  0.00  0.00    +0.237 C 
ATOM     15  O   UNL     1       5.530  20.608  16.196  0.00  0.00    -0.473 OA
ATOM     16  C   UNL     1       5.777  21.175  14.915  0.00  0.00    +0.140 A 
ATOM     17  C   UNL     1       5.994  27.845  15.537  0.00  0.00    +0.057 A 
ATOM     18  C   UNL     1       5.574  27.853  14.212  0.00  0.00    +0.105 A 
ATOM     19  N   UNL     1       5.488  26.655  13.552  0.00  0.00    -0.211 N 
ATOM     20  N   UNL     1       5.084  26.405  12.254  0.00  0.00    -0.162 NA
ATOM     21  C   UNL     1       5.145  25.070  12.049  0.00  0.00    +0.124 A 
ATOM     22  C   UNL     1       5.578  22.536  14.711  0.00  0.00    +0.037 A 
ATOM     23  C   UNL     1       6.180  20.369  13.846  0.00  0.00    +0.048 A 
ENDROOT
TORSDOF 0
ENDMDL
MODEL 4
REMARK VINA RESULT:      -8.1     10.154     12.719
REMARK  Name = 5OY6_B4E.pdb
REMARK  0 active torsions:
REMARK  status: ('A' for Active; 'I' for Inactive)
REMARK                            x       y       z     vdW  Elec       q    Type
REMARK                         _______ _______ _______ _____ _____    ______ ____
ROOT
ATOM      1 CL   UNL     1      14.664  22.912  25.571  0.00  0.00    -0.082 Cl
ATOM      2  C   UNL     1      13.913  21.331  25.542  0.00  0.00    +0.061 A 
ATOM      3  C   UNL     1      12.845  21.134  24.683  0.00  0.00    +0.012 A 
ATOM      4  C   UNL     1      12.209  19.900  24.628  0.00  0.00    +0.008 A 
ATOM      5  C   UNL     1      11.136  19.724  23.750  0.00  0.00    +0.057 A 
ATOM      6  C   UNL     1      10.023  18.862  23.929  0.00  0.00    +0.167 A 
ATOM      7  N   UNL     1       9.714  18.009  24.968  0.00  0.00    -0.210 NA
ATOM      8  C   UNL     1       8.582  17.285  24.907  0.00  0.00    +0.151 A 
ATOM      9  N   UNL     1       8.252  16.403  25.977  0.00  0.00    -0.218 NA
ATOM     10  C   UNL     1       8.937  16.516  27.222  0.00  0.00    +0.146 C 
ATOM     11  C   UNL     1      10.287  15.857  27.082  0.00  0.00    +0.166 C 
ATOM     12  O   UNL     1      11.213  16.683  27.787  0.00  0.00    -0.348 OA
ATOM     13  C   UNL     1      12.580  16.288  27.661  0.00  0.00    +0.189 C 
ATOM     14  C   UNL     1      13.361  17.486  28.136  0.00  0.00    +0.237 C 
ATOM     15  O   UNL     1      14.197  17.957  27.097  0.00  0.00    -0.473 OA
ATOM     16  C   UNL     1      13.727  19.040  26.302  0.00  0.00    +0.140 A 
ATOM     17  C   UNL     1       7.730  17.402  23.797  0.00  0.00    +0.057 A 
ATOM     18  C   UNL     1       8.070  18.267  22.763  0.00  0.00    +0.105 A 
ATOM     19  N   UNL     1       9.231  18.987  22.875  0.00  0.00    -0.211 N 
ATOM     20  N   UNL     1       9.786  19.886  21.983  0.00  0.00    -0.162 NA
ATOM     21  C   UNL     1      10.946  20.336  22.512  0.00  0.00    +0.124 A 
ATOM     22  C   UNL     1      12.656  18.848  25.437  0.00  0.00    +0.037 A 
ATOM     23  C   UNL     1      14.359  20.286  26.351  0.00  0.00    +0.048 A 
ENDROOT
TORSDOF 0
ENDMDL
MODEL 5
REMARK VINA RESULT:      -7.8      3.005      5.052
REMARK  Name = 5OY6_B4E.pdb
REMARK  0 active torsions:
REMARK  status: ('A' for Active; 'I' for Inactive)
REMARK                            x       y       z     vdW  Elec       q    Type
REMARK                         _______ _______ _______ _____ _____    ______ ____
ROOT
ATOM      1 CL   UNL     1       7.936  27.947  17.726  0.00  0.00    -0.082 Cl
ATOM      2  C   UNL     1       7.139  26.811  16.659  0.00  0.00    +0.061 A 
ATOM      3  C   UNL     1       7.135  25.473  17.019  0.00  0.00    +0.012 A 
ATOM      4  C   UNL     1       6.523  24.530  16.203  0.00  0.00    +0.008 A 
ATOM      5  C   UNL     1       6.528  23.188  16.589  0.00  0.00    +0.057 A 
ATOM      6  C   UNL     1       6.536  22.056  15.733  0.00  0.00    +0.167 A 
ATOM      7  N   UNL     1       6.543  21.980  14.356  0.00  0.00    -0.210 NA
ATOM      8  C   UNL     1       6.551  20.771  13.766  0.00  0.00    +0.151 A 
ATOM      9  N   UNL     1       6.561  20.682  12.344  0.00  0.00    -0.218 NA
ATOM     10  C   UNL     1       6.873  21.835  11.566  0.00  0.00    +0.146 C 
ATOM     11  C   UNL     1       5.649  22.716  11.511  0.00  0.00    +0.166 C 
ATOM     12  O   UNL     1       6.114  24.060  11.627  0.00  0.00    -0.348 OA
ATOM     13  C   UNL     1       5.082  25.042  11.725  0.00  0.00    +0.189 C 
ATOM     14  C   UNL     1       5.788  26.278  12.220  0.00  0.00    +0.237 C 
ATOM     15  O   UNL     1       5.237  26.684  13.458  0.00  0.00    -0.473 OA
ATOM     16  C   UNL     1       5.901  26.276  14.648  0.00  0.00    +0.140 A 
ATOM     17  C   UNL     1       6.553  19.605  14.549  0.00  0.00    +0.057 A 
ATOM     18  C   UNL     1       6.542  19.713  15.935  0.00  0.00    +0.105 A 
ATOM     19  N   UNL     1       6.540  20.968  16.488  0.00  0.00    -0.211 N 
ATOM     20  N   UNL     1       6.511  21.329  17.822  0.00  0.00    -0.162 NA
ATOM     21  C   UNL     1       6.504  22.680  17.887  0.00  0.00    +0.124 A 
ATOM     22  C   UNL     1       5.899  24.935  15.016  0.00  0.00    +0.037 A 
ATOM     23  C   UNL     1       6.521  27.216  15.476  0.00  0.00    +0.048 A 
ENDROOT
TORSDOF 0
ENDMDL
MODEL 6
REMARK VINA RESULT:      -7.8      9.627     10.991
REMARK  Name = 5OY6_B4E.pdb
REMARK  0 active torsions:
REMARK  status: ('A' for Active; 'I' for Inactive)
REMARK                            x       y       z     vdW  Elec       q    Type
REMARK                         _______ _______ _______ _____ _____    ______ ____
ROOT
ATOM      1 CL   UNL     1      18.204  20.019  14.116  0.00  0.00    -0.082 Cl
ATOM      2  C   UNL     1      17.245  21.256  14.899  0.00  0.00    +0.061 A 
ATOM      3  C   UNL     1      17.536  21.569  16.217  0.00  0.00    +0.012 A 
ATOM      4  C   UNL     1      16.799  22.537  16.887  0.00  0.00    +0.008 A 
ATOM      5  C   UNL     1      17.114  22.838  18.214  0.00  0.00    +0.057 A 
ATOM      6  C   UNL     1      16.218  23.277  19.223  0.00  0.00    +0.167 A 
ATOM      7  N   UNL     1      14.860  23.512  19.168  0.00  0.00    -0.210 NA
ATOM      8  C   UNL     1      14.222  23.929  20.277  0.00  0.00    +0.151 A 
ATOM      9  N   UNL     1      12.818  24.171  20.232  0.00  0.00    -0.218 NA
ATOM     10  C   UNL     1      12.052  23.684  19.132  0.00  0.00    +0.146 C 
ATOM     11  C   UNL     1      12.259  24.613  17.961  0.00  0.00    +0.166 C 
ATOM     12  O   UNL     1      12.353  23.785  16.803  0.00  0.00    -0.348 OA
ATOM     13  C   UNL     1      12.681  24.480  15.599  0.00  0.00    +0.189 C 
ATOM     14  C   UNL     1      13.099  23.393  14.642  0.00  0.00    +0.237 C 
ATOM     15  O   UNL     1      14.433  23.607  14.224  0.00  0.00    -0.473 OA
ATOM     16  C   UNL     1      15.465  22.899  14.901  0.00  0.00    +0.140 A 
ATOM     17  C   UNL     1      14.935  24.120  21.471  0.00  0.00    +0.057 A 
ATOM     18  C   UNL     1      16.304  23.880  21.494  0.00  0.00    +0.105 A 
ATOM     19  N   UNL     1      16.907  23.450  20.340  0.00  0.00    -0.211 N 
ATOM     20  N   UNL     1      18.241  23.165  20.111  0.00  0.00    -0.162 NA
ATOM     21  C   UNL     1      18.370  22.793  18.817  0.00  0.00    +0.124 A 
ATOM     22  C   UNL     1      15.763  23.208  16.223  0.00  0.00    +0.037 A 
ATOM     23  C   UNL     1      16.212  21.920  14.237  0.00  0.00    +0.048 A 
ENDROOT
TORSDOF 0
ENDMDL
MODEL 7
REMARK VINA RESULT:      -7.6      2.531      4.651
REMARK  Name = 5OY6_B4E.pdb
REMARK  0 active torsions:
REMARK  status: ('A' for Active; 'I' for Inactive)
REMARK                            x       y       z     vdW  Elec       q    Type
REMARK                         _______ _______ _______ _____ _____    ______ ____
ROOT
ATOM      1 CL   UNL     1       7.587  22.859  21.945  0.00  0.00    -0.082 Cl
ATOM      2  C   UNL     1       7.039  23.384  20.367  0.00  0.00    +0.061 A 
ATOM      3  C   UNL     1       6.873  22.424  19.383  0.00  0.00    +0.012 A 
ATOM      4  C   UNL     1       6.447  22.789  18.113  0.00  0.00    +0.008 A 
ATOM      5  C   UNL     1       6.284  21.802  17.137  0.00  0.00    +0.057 A 
ATOM      6  C   UNL     1       6.456  21.952  15.737  0.00  0.00    +0.167 A 
ATOM      7  N   UNL     1       6.817  23.059  14.997  0.00  0.00    -0.210 NA
ATOM      8  C   UNL     1       6.917  22.949  13.660  0.00  0.00    +0.151 A 
ATOM      9  N   UNL     1       7.292  24.086  12.886  0.00  0.00    -0.218 NA
ATOM     10  C   UNL     1       7.853  25.226  13.533  0.00  0.00    +0.146 C 
ATOM     11  C   UNL     1       6.732  26.014  14.165  0.00  0.00    +0.166 C 
ATOM     12  O   UNL     1       7.219  26.465  15.427  0.00  0.00    -0.348 OA
ATOM     13  C   UNL     1       6.248  27.129  16.238  0.00  0.00    +0.189 C 
ATOM     14  C   UNL     1       6.863  27.152  17.613  0.00  0.00    +0.237 C 
ATOM     15  O   UNL     1       6.031  26.461  18.525  0.00  0.00    -0.473 OA
ATOM     16  C   UNL     1       6.340  25.102  18.811  0.00  0.00    +0.140 A 
ATOM     17  C   UNL     1       6.656  21.720  13.033  0.00  0.00    +0.057 A 
ATOM     18  C   UNL     1       6.290  20.623  13.804  0.00  0.00    +0.105 A 
ATOM     19  N   UNL     1       6.209  20.784  15.163  0.00  0.00    -0.211 N 
ATOM     20  N   UNL     1       5.852  19.860  16.128  0.00  0.00    -0.162 NA
ATOM     21  C   UNL     1       5.897  20.477  17.331  0.00  0.00    +0.124 A 
ATOM     22  C   UNL     1       6.175  24.133  17.828  0.00  0.00    +0.037 A 
ATOM     23  C   UNL     1       6.771  24.723  20.086  0.00  0.00    +0.048 A 
ENDROOT
TORSDOF 0
ENDMDL
MODEL 8
REMARK VINA RESULT:      -7.5      9.286     11.530
REMARK  Name = 5OY6_B4E.pdb
REMARK  0 active torsions:
REMARK  status: ('A' for Active; 'I' for Inactive)
REMARK                            x       y       z     vdW  Elec       q    Type
REMARK                         _______ _______ _______ _____ _____    ______ ____
ROOT
ATOM      1 CL   UNL     1      17.776  23.796  21.865  0.00  0.00    -0.082 Cl
ATOM      2  C   UNL     1      16.081  23.400  22.061  0.00  0.00    +0.061 A 
ATOM      3  C   UNL     1      15.675  22.858  23.269  0.00  0.00    +0.012 A 
ATOM      4  C   UNL     1      14.343  22.520  23.472  0.00  0.00    +0.008 A 
ATOM      5  C   UNL     1      13.957  21.978  24.700  0.00  0.00    +0.057 A 
ATOM      6  C   UNL     1      12.904  21.055  24.930  0.00  0.00    +0.167 A 
ATOM      7  N   UNL     1      12.023  20.470  24.045  0.00  0.00    -0.210 NA
ATOM      8  C   UNL     1      11.099  19.611  24.512  0.00  0.00    +0.151 A 
ATOM      9  N   UNL     1      10.186  18.998  23.605  0.00  0.00    -0.218 NA
ATOM     10  C   UNL     1      10.443  19.047  22.203  0.00  0.00    +0.146 C 
ATOM     11  C   UNL     1      10.047  20.412  21.695  0.00  0.00    +0.166 C 
ATOM     12  O   UNL     1      11.041  20.792  20.746  0.00  0.00    -0.348 OA
ATOM     13  C   UNL     1      10.908  22.122  20.243  0.00  0.00    +0.189 C 
ATOM     14  C   UNL     1      12.238  22.413  19.597  0.00  0.00    +0.237 C 
ATOM     15  O   UNL     1      12.843  23.528  20.222  0.00  0.00    -0.473 OA
ATOM     16  C   UNL     1      13.807  23.280  21.240  0.00  0.00    +0.140 A 
ATOM     17  C   UNL     1      11.038  19.318  25.883  0.00  0.00    +0.057 A 
ATOM     18  C   UNL     1      11.936  19.927  26.752  0.00  0.00    +0.105 A 
ATOM     19  N   UNL     1      12.864  20.789  26.227  0.00  0.00    -0.211 N 
ATOM     20  N   UNL     1      13.838  21.522  26.880  0.00  0.00    -0.162 NA
ATOM     21  C   UNL     1      14.504  22.246  25.954  0.00  0.00    +0.124 A 
ATOM     22  C   UNL     1      13.406  22.737  22.454  0.00  0.00    +0.037 A 
ATOM     23  C   UNL     1      15.150  23.615  21.045  0.00  0.00    +0.048 A 
ENDROOT
TORSDOF 0
ENDMDL
MODEL 9
REMARK VINA RESULT:      -7.5     10.149     12.868
REMARK  Name = 5OY6_B4E.pdb
REMARK  0 active torsions:
REMARK  status: ('A' for Active; 'I' for Inactive)
REMARK                            x       y       z     vdW  Elec       q    Type
REMARK                         _______ _______ _______ _____ _____    ______ ____
ROOT
ATOM      1 CL   UNL     1       8.403  18.073  20.452  0.00  0.00    -0.082 Cl
ATOM      2  C   UNL     1       8.963  18.215  22.104  0.00  0.00    +0.061 A 
ATOM      3  C   UNL     1       9.997  19.098  22.367  0.00  0.00    +0.012 A 
ATOM      4  C   UNL     1      10.484  19.241  23.661  0.00  0.00    +0.008 A 
ATOM      5  C   UNL     1      11.525  20.141  23.903  0.00  0.00    +0.057 A 
ATOM      6  C   UNL     1      12.530  20.032  24.898  0.00  0.00    +0.167 A 
ATOM      7  N   UNL     1      12.741  19.055  25.848  0.00  0.00    -0.210 NA
ATOM      8  C   UNL     1      13.781  19.177  26.694  0.00  0.00    +0.151 A 
ATOM      9  N   UNL     1      14.010  18.171  27.677  0.00  0.00    -0.218 NA
ATOM     10  C   UNL     1      13.347  16.912  27.568  0.00  0.00    +0.146 C 
ATOM     11  C   UNL     1      11.929  17.079  28.054  0.00  0.00    +0.166 C 
ATOM     12  O   UNL     1      11.109  16.311  27.174  0.00  0.00    -0.348 OA
ATOM     13  C   UNL     1       9.705  16.446  27.398  0.00  0.00    +0.189 C 
ATOM     14  C   UNL     1       9.072  15.884  26.151  0.00  0.00    +0.237 C 
ATOM     15  O   UNL     1       8.292  16.880  25.517  0.00  0.00    -0.473 OA
ATOM     16  C   UNL     1       8.882  17.608  24.447  0.00  0.00    +0.140 A 
ATOM     17  C   UNL     1      14.635  20.287  26.604  0.00  0.00    +0.057 A 
ATOM     18  C   UNL     1      14.394  21.258  25.639  0.00  0.00    +0.105 A 
ATOM     19  N   UNL     1      13.327  21.085  24.797  0.00  0.00    -0.211 N 
ATOM     20  N   UNL     1      12.877  21.910  23.782  0.00  0.00    -0.162 NA
ATOM     21  C   UNL     1      11.780  21.338  23.236  0.00  0.00    +0.124 A 
ATOM     22  C   UNL     1       9.920  18.497  24.705  0.00  0.00    +0.037 A 
ATOM     23  C   UNL     1       8.401  17.470  23.141  0.00  0.00    +0.048 A 
ENDROOT
TORSDOF 0
ENDMDL
