MODEL 1
REMARK VINA RESULT:      -9.5      0.000      0.000
REMARK  Name = 3Q4U_LDN.pdb
REMARK  3 active torsions:
REMARK  status: ('A' for Active; 'I' for Inactive)
REMARK    1  A    between atoms: _18  and  _19
REMARK    2  A    between atoms: _20  and  _30
REMARK    3  A    between atoms: _21  and  _22
REMARK                            x       y       z     vdW  Elec       q    Type
REMARK                         _______ _______ _______ _____ _____    ______ ____
ROOT
ATOM      1  C   UNL     1       7.470  24.342  17.147  0.00  0.00    +0.057 A 
ATOM      2  C   UNL     1       8.840  24.180  17.250  0.00  0.00    +0.165 A 
ATOM      3  N   UNL     1       9.080  23.663  18.558  0.00  0.00    -0.211 N 
ATOM      4  N   UNL     1       7.994  23.557  19.148  0.00  0.00    -0.162 NA
ATOM      5  C   UNL     1      10.360  23.383  18.969  0.00  0.00    +0.104 A 
ATOM      6  C   UNL     1      11.415  23.635  18.109  0.00  0.00    +0.038 A 
ATOM      7  C   UNL     1      11.144  24.110  16.821  0.00  0.00    +0.102 A 
ATOM      8  N   UNL     1       9.876  24.426  16.412  0.00  0.00    -0.225 NA
ATOM      9  C   UNL     1       7.000  23.960  18.321  0.00  0.00    +0.124 A 
ENDROOT
BRANCH   1  14
ATOM     10  C   UNL     1       6.267  28.920  14.924  0.00  0.00    +0.002 A 
ATOM     11  C   UNL     1       5.667  27.919  14.180  0.00  0.00    +0.019 A 
ATOM     12  C   UNL     1       5.802  26.575  14.515  0.00  0.00    +0.081 A 
ATOM     13  C   UNL     1       6.568  26.218  15.648  0.00  0.00    +0.018 A 
ATOM     14  C   UNL     1       6.704  24.846  16.015  0.00  0.00    +0.008 A 
ATOM     15  C   UNL     1       6.122  23.930  15.156  0.00  0.00    +0.021 A 
ATOM     16  C   UNL     1       5.357  24.338  14.045  0.00  0.00    +0.099 A 
ATOM     17  C   UNL     1       7.137  27.242  16.394  0.00  0.00    +0.001 A 
ATOM     18  N   UNL     1       5.240  25.634  13.741  0.00  0.00    -0.244 NA
ATOM     19  C   UNL     1       7.016  28.587  16.047  0.00  0.00    +0.000 A 
ENDBRANCH   1  14
BRANCH   6  20
ATOM     20  C   UNL     1      12.711  23.282  18.537  0.00  0.00    +0.003 A 
ATOM     21  C   UNL     1      12.926  22.289  19.506  0.00  0.00    +0.001 A 
ATOM     22  C   UNL     1      14.247  21.939  19.838  0.00  0.00    +0.015 A 
ATOM     23  C   UNL     1      15.332  22.554  19.249  0.00  0.00    +0.048 A 
ATOM     24  C   UNL     1      15.113  23.528  18.293  0.00  0.00    +0.015 A 
ATOM     25  C   UNL     1      13.810  23.857  17.921  0.00  0.00    +0.001 A 
BRANCH  23  26
ATOM     26  N   UNL     1      16.693  22.210  19.534  0.00  0.00    -0.305 N 
ATOM     27  C   UNL     1      17.087  21.774  20.881  0.00  0.00    +0.110 C 
ATOM     28  C   UNL     1      18.552  21.267  20.982  0.00  0.00    +0.110 C 
ATOM     29  N   UNL     1      19.525  22.135  20.274  0.00  0.00    -0.214 NA
ATOM     30  C   UNL     1      18.872  23.184  19.458  0.00  0.00    +0.110 C 
ATOM     31  C   UNL     1      17.764  22.583  18.605  0.00  0.00    +0.110 C 
ENDBRANCH  23  26
ENDBRANCH   6  20
TORSDOF 3
ENDMDL
MODEL 2
REMARK VINA RESULT:      -9.2      7.055     11.209
REMARK  Name = 3Q4U_LDN.pdb
REMARK  3 active torsions:
REMARK  status: ('A' for Active; 'I' for Inactive)
REMARK    1  A    between atoms: _18  and  _19
REMARK    2  A    between atoms: _20  and  _30
REMARK    3  A    between atoms: _21  and  _22
REMARK                            x       y       z     vdW  Elec       q    Type
REMARK                         _______ _______ _______ _____ _____    ______ ____
ROOT
ATOM      1  C   UNL     1      16.392  22.580  16.387  0.00  0.00    +0.057 A 
ATOM      2  C   UNL     1      16.689  23.778  15.762  0.00  0.00    +0.165 A 
ATOM      3  N   UNL     1      16.977  23.456  14.403  0.00  0.00    -0.211 N 
ATOM      4  N   UNL     1      16.881  22.228  14.257  0.00  0.00    -0.162 NA
ATOM      5  C   UNL     1      17.303  24.447  13.510  0.00  0.00    +0.104 A 
ATOM      6  C   UNL     1      17.377  25.756  13.951  0.00  0.00    +0.038 A 
ATOM      7  C   UNL     1      17.056  26.043  15.283  0.00  0.00    +0.102 A 
ATOM      8  N   UNL     1      16.763  25.061  16.191  0.00  0.00    -0.225 NA
ATOM      9  C   UNL     1      16.529  21.668  15.440  0.00  0.00    +0.124 A 
ENDROOT
BRANCH   1  14
ATOM     10  C   UNL     1      18.634  22.740  21.108  0.00  0.00    +0.002 A 
ATOM     11  C   UNL     1      17.310  22.379  21.282  0.00  0.00    +0.019 A 
ATOM     12  C   UNL     1      16.436  22.253  20.206  0.00  0.00    +0.081 A 
ATOM     13  C   UNL     1      16.913  22.493  18.897  0.00  0.00    +0.018 A 
ATOM     14  C   UNL     1      16.035  22.352  17.781  0.00  0.00    +0.008 A 
ATOM     15  C   UNL     1      14.716  22.060  18.081  0.00  0.00    +0.021 A 
ATOM     16  C   UNL     1      14.294  21.817  19.404  0.00  0.00    +0.099 A 
ATOM     17  C   UNL     1      18.252  22.826  18.746  0.00  0.00    +0.001 A 
ATOM     18  N   UNL     1      15.149  21.944  20.423  0.00  0.00    -0.244 NA
ATOM     19  C   UNL     1      19.122  22.971  19.827  0.00  0.00    +0.000 A 
ENDBRANCH   1  14
BRANCH   6  20
ATOM     20  C   UNL     1      17.656  26.757  12.999  0.00  0.00    +0.003 A 
ATOM     21  C   UNL     1      17.085  26.738  11.717  0.00  0.00    +0.001 A 
ATOM     22  C   UNL     1      17.354  27.803  10.838  0.00  0.00    +0.015 A 
ATOM     23  C   UNL     1      18.172  28.854  11.198  0.00  0.00    +0.048 A 
ATOM     24  C   UNL     1      18.728  28.867  12.464  0.00  0.00    +0.015 A 
ATOM     25  C   UNL     1      18.438  27.841  13.361  0.00  0.00    +0.001 A 
BRANCH  23  26
ATOM     26  N   UNL     1      18.449  29.973  10.349  0.00  0.00    -0.305 N 
ATOM     27  C   UNL     1      17.805  30.090   9.033  0.00  0.00    +0.110 C 
ATOM     28  C   UNL     1      18.069  31.442   8.314  0.00  0.00    +0.110 C 
ATOM     29  N   UNL     1      19.486  31.876   8.379  0.00  0.00    -0.214 NA
ATOM     30  C   UNL     1      20.304  31.035   9.282  0.00  0.00    +0.110 C 
ATOM     31  C   UNL     1      19.599  30.843  10.617  0.00  0.00    +0.110 C 
ENDBRANCH  23  26
ENDBRANCH   6  20
TORSDOF 3
ENDMDL
MODEL 3
REMARK VINA RESULT:      -9.0      7.240     11.418
REMARK  Name = 3Q4U_LDN.pdb
REMARK  3 active torsions:
REMARK  status: ('A' for Active; 'I' for Inactive)
REMARK    1  A    between atoms: _18  and  _19
REMARK    2  A    between atoms: _20  and  _30
REMARK    3  A    between atoms: _21  and  _22
REMARK                            x       y       z     vdW  Elec       q    Type
REMARK                         _______ _______ _______ _____ _____    ______ ____
ROOT
ATOM      1  C   UNL     1      17.287  23.224  17.361  0.00  0.00    +0.057 A 
ATOM      2  C   UNL     1      17.545  24.316  16.551  0.00  0.00    +0.165 A 
ATOM      3  N   UNL     1      17.033  23.983  15.263  0.00  0.00    -0.211 N 
ATOM      4  N   UNL     1      16.556  22.839  15.309  0.00  0.00    -0.162 NA
ATOM      5  C   UNL     1      17.129  24.878  14.225  0.00  0.00    +0.104 A 
ATOM      6  C   UNL     1      17.754  26.094  14.439  0.00  0.00    +0.038 A 
ATOM      7  C   UNL     1      18.216  26.404  15.723  0.00  0.00    +0.102 A 
ATOM      8  N   UNL     1      18.157  25.507  16.756  0.00  0.00    -0.225 NA
ATOM      9  C   UNL     1      16.695  22.352  16.566  0.00  0.00    +0.124 A 
ENDROOT
BRANCH   1  14
ATOM     10  C   UNL     1      15.124  24.075  22.046  0.00  0.00    +0.002 A 
ATOM     11  C   UNL     1      16.368  23.507  22.253  0.00  0.00    +0.019 A 
ATOM     12  C   UNL     1      17.200  23.155  21.193  0.00  0.00    +0.081 A 
ATOM     13  C   UNL     1      16.767  23.388  19.867  0.00  0.00    +0.018 A 
ATOM     14  C   UNL     1      17.613  23.049  18.771  0.00  0.00    +0.008 A 
ATOM     15  C   UNL     1      18.803  22.420  19.095  0.00  0.00    +0.021 A 
ATOM     16  C   UNL     1      19.194  22.222  20.434  0.00  0.00    +0.099 A 
ATOM     17  C   UNL     1      15.526  23.985  19.687  0.00  0.00    +0.001 A 
ATOM     18  N   UNL     1      18.380  22.567  21.437  0.00  0.00    -0.244 NA
ATOM     19  C   UNL     1      14.686  24.319  20.749  0.00  0.00    +0.000 A 
ENDBRANCH   1  14
BRANCH   6  20
ATOM     20  C   UNL     1      17.785  27.015  13.373  0.00  0.00    +0.003 A 
ATOM     21  C   UNL     1      17.993  28.386  13.584  0.00  0.00    +0.001 A 
ATOM     22  C   UNL     1      18.079  29.240  12.470  0.00  0.00    +0.015 A 
ATOM     23  C   UNL     1      17.949  28.768  11.181  0.00  0.00    +0.048 A 
ATOM     24  C   UNL     1      17.748  27.415  10.980  0.00  0.00    +0.015 A 
ATOM     25  C   UNL     1      17.703  26.549  12.071  0.00  0.00    +0.001 A 
BRANCH  23  26
ATOM     26  N   UNL     1      18.059  29.595  10.016  0.00  0.00    -0.305 N 
ATOM     27  C   UNL     1      19.252  30.425   9.799  0.00  0.00    +0.110 C 
ATOM     28  C   UNL     1      19.299  31.122   8.411  0.00  0.00    +0.110 C 
ATOM     29  N   UNL     1      18.006  31.733   8.017  0.00  0.00    -0.214 NA
ATOM     30  C   UNL     1      16.899  31.379   8.933  0.00  0.00    +0.110 C 
ATOM     31  C   UNL     1      16.880  29.880   9.193  0.00  0.00    +0.110 C 
ENDBRANCH  23  26
ENDBRANCH   6  20
TORSDOF 3
ENDMDL
MODEL 4
REMARK VINA RESULT:      -8.9      6.266     10.281
REMARK  Name = 3Q4U_LDN.pdb
REMARK  3 active torsions:
REMARK  status: ('A' for Active; 'I' for Inactive)
REMARK    1  A    between atoms: _18  and  _19
REMARK    2  A    between atoms: _20  and  _30
REMARK    3  A    between atoms: _21  and  _22
REMARK                            x       y       z     vdW  Elec       q    Type
REMARK                         _______ _______ _______ _____ _____    ______ ____
ROOT
ATOM      1  C   UNL     1      15.433  22.480  17.544  0.00  0.00    +0.057 A 
ATOM      2  C   UNL     1      15.744  23.597  16.790  0.00  0.00    +0.165 A 
ATOM      3  N   UNL     1      16.332  23.110  15.585  0.00  0.00    -0.211 N 
ATOM      4  N   UNL     1      16.377  21.872  15.638  0.00  0.00    -0.162 NA
ATOM      5  C   UNL     1      16.745  23.987  14.611  0.00  0.00    +0.104 A 
ATOM      6  C   UNL     1      16.611  25.347  14.826  0.00  0.00    +0.038 A 
ATOM      7  C   UNL     1      15.999  25.792  16.004  0.00  0.00    +0.102 A 
ATOM      8  N   UNL     1      15.615  24.930  16.996  0.00  0.00    -0.225 NA
ATOM      9  C   UNL     1      15.841  21.459  16.812  0.00  0.00    +0.124 A 
ENDROOT
BRANCH   1  14
ATOM     10  C   UNL     1      16.746  23.292  22.540  0.00  0.00    +0.002 A 
ATOM     11  C   UNL     1      15.412  22.928  22.509  0.00  0.00    +0.019 A 
ATOM     12  C   UNL     1      14.756  22.645  21.314  0.00  0.00    +0.081 A 
ATOM     13  C   UNL     1      15.471  22.727  20.097  0.00  0.00    +0.018 A 
ATOM     14  C   UNL     1      14.819  22.425  18.865  0.00  0.00    +0.008 A 
ATOM     15  C   UNL     1      13.467  22.144  18.948  0.00  0.00    +0.021 A 
ATOM     16  C   UNL     1      12.803  22.062  20.189  0.00  0.00    +0.099 A 
ATOM     17  C   UNL     1      16.816  23.068  20.158  0.00  0.00    +0.001 A 
ATOM     18  N   UNL     1      13.451  22.338  21.325  0.00  0.00    -0.244 NA
ATOM     19  C   UNL     1      17.467  23.369  21.354  0.00  0.00    +0.000 A 
ENDBRANCH   1  14
BRANCH   6  20
ATOM     20  C   UNL     1      16.989  26.218  13.785  0.00  0.00    +0.003 A 
ATOM     21  C   UNL     1      17.672  25.760  12.648  0.00  0.00    +0.001 A 
ATOM     22  C   UNL     1      17.962  26.671  11.616  0.00  0.00    +0.015 A 
ATOM     23  C   UNL     1      17.604  28.001  11.700  0.00  0.00    +0.048 A 
ATOM     24  C   UNL     1      16.928  28.444  12.821  0.00  0.00    +0.015 A 
ATOM     25  C   UNL     1      16.597  27.545  13.833  0.00  0.00    +0.001 A 
BRANCH  23  26
ATOM     26  N   UNL     1      17.851  28.957  10.662  0.00  0.00    -0.305 N 
ATOM     27  C   UNL     1      18.513  30.234  10.963  0.00  0.00    +0.110 C 
ATOM     28  C   UNL     1      18.867  31.078   9.709  0.00  0.00    +0.110 C 
ATOM     29  N   UNL     1      17.770  31.140   8.712  0.00  0.00    -0.214 NA
ATOM     30  C   UNL     1      16.652  30.224   9.031  0.00  0.00    +0.110 C 
ATOM     31  C   UNL     1      17.177  28.836   9.365  0.00  0.00    +0.110 C 
ENDBRANCH  23  26
ENDBRANCH   6  20
TORSDOF 3
ENDMDL
MODEL 5
REMARK VINA RESULT:      -8.6      6.188      9.933
REMARK  Name = 3Q4U_LDN.pdb
REMARK  3 active torsions:
REMARK  status: ('A' for Active; 'I' for Inactive)
REMARK    1  A    between atoms: _18  and  _19
REMARK    2  A    between atoms: _20  and  _30
REMARK    3  A    between atoms: _21  and  _22
REMARK                            x       y       z     vdW  Elec       q    Type
REMARK                         _______ _______ _______ _____ _____    ______ ____
ROOT
ATOM      1  C   UNL     1      16.412  22.979  19.978  0.00  0.00    +0.057 A 
ATOM      2  C   UNL     1      16.231  23.796  18.876  0.00  0.00    +0.165 A 
ATOM      3  N   UNL     1      17.285  23.479  17.970  0.00  0.00    -0.211 N 
ATOM      4  N   UNL     1      18.001  22.606  18.484  0.00  0.00    -0.162 NA
ATOM      5  C   UNL     1      17.377  24.123  16.760  0.00  0.00    +0.104 A 
ATOM      6  C   UNL     1      16.451  25.102  16.445  0.00  0.00    +0.038 A 
ATOM      7  C   UNL     1      15.409  25.365  17.341  0.00  0.00    +0.102 A 
ATOM      8  N   UNL     1      15.326  24.755  18.563  0.00  0.00    -0.225 NA
ATOM      9  C   UNL     1      17.500  22.283  19.700  0.00  0.00    +0.124 A 
ENDROOT
BRANCH   1  14
ATOM     10  C   UNL     1      11.624  21.492  21.462  0.00  0.00    +0.002 A 
ATOM     11  C   UNL     1      12.295  21.936  22.587  0.00  0.00    +0.019 A 
ATOM     12  C   UNL     1      13.606  22.399  22.525  0.00  0.00    +0.081 A 
ATOM     13  C   UNL     1      14.272  22.423  21.278  0.00  0.00    +0.018 A 
ATOM     14  C   UNL     1      15.610  22.910  21.193  0.00  0.00    +0.008 A 
ATOM     15  C   UNL     1      16.206  23.257  22.393  0.00  0.00    +0.021 A 
ATOM     16  C   UNL     1      15.494  23.227  23.609  0.00  0.00    +0.099 A 
ATOM     17  C   UNL     1      13.567  22.000  20.159  0.00  0.00    +0.001 A 
ATOM     18  N   UNL     1      14.236  22.778  23.647  0.00  0.00    -0.244 NA
ATOM     19  C   UNL     1      12.260  21.518  20.226  0.00  0.00    +0.000 A 
ENDBRANCH   1  14
BRANCH   6  20
ATOM     20  C   UNL     1      16.537  25.703  15.173  0.00  0.00    +0.003 A 
ATOM     21  C   UNL     1      17.171  25.067  14.095  0.00  0.00    +0.001 A 
ATOM     22  C   UNL     1      17.163  25.693  12.836  0.00  0.00    +0.015 A 
ATOM     23  C   UNL     1      16.561  26.918  12.638  0.00  0.00    +0.048 A 
ATOM     24  C   UNL     1      15.934  27.537  13.703  0.00  0.00    +0.015 A 
ATOM     25  C   UNL     1      15.897  26.910  14.947  0.00  0.00    +0.001 A 
BRANCH  23  26
ATOM     26  N   UNL     1      16.501  27.578  11.368  0.00  0.00    -0.305 N 
ATOM     27  C   UNL     1      17.396  28.705  11.068  0.00  0.00    +0.110 C 
ATOM     28  C   UNL     1      17.333  29.193   9.595  0.00  0.00    +0.110 C 
ATOM     29  N   UNL     1      15.949  29.313   9.074  0.00  0.00    -0.214 NA
ATOM     30  C   UNL     1      14.937  28.753   9.998  0.00  0.00    +0.110 C 
ATOM     31  C   UNL     1      15.356  27.371  10.475  0.00  0.00    +0.110 C 
ENDBRANCH  23  26
ENDBRANCH   6  20
TORSDOF 3
ENDMDL
MODEL 6
REMARK VINA RESULT:      -8.4      6.602      8.999
REMARK  Name = 3Q4U_LDN.pdb
REMARK  3 active torsions:
REMARK  status: ('A' for Active; 'I' for Inactive)
REMARK    1  A    between atoms: _18  and  _19
REMARK    2  A    between atoms: _20  and  _30
REMARK    3  A    between atoms: _21  and  _22
REMARK                            x       y       z     vdW  Elec       q    Type
REMARK                         _______ _______ _______ _____ _____    ______ ____
ROOT
ATOM      1  C   UNL     1      17.588  26.830  12.776  0.00  0.00    +0.057 A 
ATOM      2  C   UNL     1      16.902  26.694  13.969  0.00  0.00    +0.165 A 
ATOM      3  N   UNL     1      16.962  25.310  14.306  0.00  0.00    -0.211 N 
ATOM      4  N   UNL     1      17.585  24.712  13.415  0.00  0.00    -0.162 NA
ATOM      5  C   UNL     1      16.373  24.849  15.458  0.00  0.00    +0.104 A 
ATOM      6  C   UNL     1      15.697  25.741  16.272  0.00  0.00    +0.038 A 
ATOM      7  C   UNL     1      15.685  27.098  15.932  0.00  0.00    +0.102 A 
ATOM      8  N   UNL     1      16.238  27.563  14.769  0.00  0.00    -0.225 NA
ATOM      9  C   UNL     1      17.976  25.604  12.473  0.00  0.00    +0.124 A 
ENDROOT
BRANCH   1  14
ATOM     10  C   UNL     1      15.160  29.699   9.141  0.00  0.00    +0.002 A 
ATOM     11  C   UNL     1      16.367  30.312   9.424  0.00  0.00    +0.019 A 
ATOM     12  C   UNL     1      17.252  29.790  10.363  0.00  0.00    +0.081 A 
ATOM     13  C   UNL     1      16.914  28.598  11.045  0.00  0.00    +0.018 A 
ATOM     14  C   UNL     1      17.817  28.041  11.998  0.00  0.00    +0.008 A 
ATOM     15  C   UNL     1      18.960  28.779  12.253  0.00  0.00    +0.021 A 
ATOM     16  C   UNL     1      19.257  29.955  11.537  0.00  0.00    +0.099 A 
ATOM     17  C   UNL     1      15.710  27.988  10.722  0.00  0.00    +0.001 A 
ATOM     18  N   UNL     1      18.393  30.440  10.639  0.00  0.00    -0.244 NA
ATOM     19  C   UNL     1      14.815  28.522   9.795  0.00  0.00    +0.000 A 
ENDBRANCH   1  14
BRANCH   6  20
ATOM     20  C   UNL     1      15.154  25.249  17.476  0.00  0.00    +0.003 A 
ATOM     21  C   UNL     1      14.084  24.340  17.490  0.00  0.00    +0.001 A 
ATOM     22  C   UNL     1      13.634  23.839  18.724  0.00  0.00    +0.015 A 
ATOM     23  C   UNL     1      14.206  24.227  19.918  0.00  0.00    +0.048 A 
ATOM     24  C   UNL     1      15.261  25.120  19.897  0.00  0.00    +0.015 A 
ATOM     25  C   UNL     1      15.746  25.594  18.680  0.00  0.00    +0.001 A 
BRANCH  23  26
ATOM     26  N   UNL     1      13.801  23.720  21.195  0.00  0.00    -0.305 N 
ATOM     27  C   UNL     1      14.784  23.117  22.106  0.00  0.00    +0.110 C 
ATOM     28  C   UNL     1      14.222  22.781  23.515  0.00  0.00    +0.110 C 
ATOM     29  N   UNL     1      12.892  22.128  23.478  0.00  0.00    -0.214 NA
ATOM     30  C   UNL     1      12.294  22.116  22.124  0.00  0.00    +0.110 C 
ATOM     31  C   UNL     1      12.381  23.497  21.490  0.00  0.00    +0.110 C 
ENDBRANCH  23  26
ENDBRANCH   6  20
TORSDOF 3
ENDMDL
MODEL 7
REMARK VINA RESULT:      -8.4      5.586      9.619
REMARK  Name = 3Q4U_LDN.pdb
REMARK  3 active torsions:
REMARK  status: ('A' for Active; 'I' for Inactive)
REMARK    1  A    between atoms: _18  and  _19
REMARK    2  A    between atoms: _20  and  _30
REMARK    3  A    between atoms: _21  and  _22
REMARK                            x       y       z     vdW  Elec       q    Type
REMARK                         _______ _______ _______ _____ _____    ______ ____
ROOT
ATOM      1  C   UNL     1      14.984  22.489  19.513  0.00  0.00    +0.057 A 
ATOM      2  C   UNL     1      14.885  23.354  18.439  0.00  0.00    +0.165 A 
ATOM      3  N   UNL     1      16.139  23.292  17.763  0.00  0.00    -0.211 N 
ATOM      4  N   UNL     1      16.881  22.508  18.375  0.00  0.00    -0.162 NA
ATOM      5  C   UNL     1      16.356  24.041  16.633  0.00  0.00    +0.104 A 
ATOM      6  C   UNL     1      15.354  24.878  16.175  0.00  0.00    +0.038 A 
ATOM      7  C   UNL     1      14.123  24.891  16.840  0.00  0.00    +0.102 A 
ATOM      8  N   UNL     1      13.906  24.175  17.987  0.00  0.00    -0.225 NA
ATOM      9  C   UNL     1      16.211  22.006  19.440  0.00  0.00    +0.124 A 
ENDROOT
BRANCH   1  14
ATOM     10  C   UNL     1      14.379  22.836  24.696  0.00  0.00    +0.002 A 
ATOM     11  C   UNL     1      13.215  22.304  24.171  0.00  0.00    +0.019 A 
ATOM     12  C   UNL     1      13.058  22.088  22.804  0.00  0.00    +0.081 A 
ATOM     13  C   UNL     1      14.117  22.416  21.926  0.00  0.00    +0.018 A 
ATOM     14  C   UNL     1      13.979  22.187  20.525  0.00  0.00    +0.008 A 
ATOM     15  C   UNL     1      12.745  21.720  20.107  0.00  0.00    +0.021 A 
ATOM     16  C   UNL     1      11.726  21.397  21.024  0.00  0.00    +0.099 A 
ATOM     17  C   UNL     1      15.284  22.923  22.481  0.00  0.00    +0.001 A 
ATOM     18  N   UNL     1      11.897  21.611  22.332  0.00  0.00    -0.244 NA
ATOM     19  C   UNL     1      15.434  23.155  23.848  0.00  0.00    +0.000 A 
ENDBRANCH   1  14
BRANCH   6  20
ATOM     20  C   UNL     1      15.585  25.589  14.980  0.00  0.00    +0.003 A 
ATOM     21  C   UNL     1      16.861  25.669  14.402  0.00  0.00    +0.001 A 
ATOM     22  C   UNL     1      17.009  26.339  13.174  0.00  0.00    +0.015 A 
ATOM     23  C   UNL     1      15.939  26.929  12.534  0.00  0.00    +0.048 A 
ATOM     24  C   UNL     1      14.684  26.842  13.108  0.00  0.00    +0.015 A 
ATOM     25  C   UNL     1      14.513  26.146  14.303  0.00  0.00    +0.001 A 
BRANCH  23  26
ATOM     26  N   UNL     1      16.037  27.594  11.269  0.00  0.00    -0.305 N 
ATOM     27  C   UNL     1      17.176  28.475  10.975  0.00  0.00    +0.110 C 
ATOM     28  C   UNL     1      17.229  28.976   9.505  0.00  0.00    +0.110 C 
ATOM     29  N   UNL     1      15.914  29.429   8.990  0.00  0.00    -0.214 NA
ATOM     30  C   UNL     1      14.798  29.121   9.913  0.00  0.00    +0.110 C 
ATOM     31  C   UNL     1      14.875  27.674  10.379  0.00  0.00    +0.110 C 
ENDBRANCH  23  26
ENDBRANCH   6  20
TORSDOF 3
ENDMDL
MODEL 8
REMARK VINA RESULT:      -8.2      7.359     11.074
REMARK  Name = 3Q4U_LDN.pdb
REMARK  3 active torsions:
REMARK  status: ('A' for Active; 'I' for Inactive)
REMARK    1  A    between atoms: _18  and  _19
REMARK    2  A    between atoms: _20  and  _30
REMARK    3  A    between atoms: _21  and  _22
REMARK                            x       y       z     vdW  Elec       q    Type
REMARK                         _______ _______ _______ _____ _____    ______ ____
ROOT
ATOM      1  C   UNL     1      17.613  27.481  12.257  0.00  0.00    +0.057 A 
ATOM      2  C   UNL     1      16.324  27.535  12.755  0.00  0.00    +0.165 A 
ATOM      3  N   UNL     1      15.948  26.187  13.032  0.00  0.00    -0.211 N 
ATOM      4  N   UNL     1      16.887  25.441  12.717  0.00  0.00    -0.162 NA
ATOM      5  C   UNL     1      14.709  25.905  13.553  0.00  0.00    +0.104 A 
ATOM      6  C   UNL     1      13.820  26.942  13.780  0.00  0.00    +0.038 A 
ATOM      7  C   UNL     1      14.231  28.256  13.530  0.00  0.00    +0.102 A 
ATOM      8  N   UNL     1      15.450  28.547  12.978  0.00  0.00    -0.225 NA
ATOM      9  C   UNL     1      17.910  26.194  12.244  0.00  0.00    +0.124 A 
ENDROOT
BRANCH   1  14
ATOM     10  C   UNL     1      17.620  31.224   8.606  0.00  0.00    +0.002 A 
ATOM     11  C   UNL     1      18.774  31.364   9.355  0.00  0.00    +0.019 A 
ATOM     12  C   UNL     1      19.067  30.514  10.418  0.00  0.00    +0.081 A 
ATOM     13  C   UNL     1      18.165  29.473  10.740  0.00  0.00    +0.018 A 
ATOM     14  C   UNL     1      18.457  28.583  11.815  0.00  0.00    +0.008 A 
ATOM     15  C   UNL     1      19.602  28.864  12.540  0.00  0.00    +0.021 A 
ATOM     16  C   UNL     1      20.475  29.906  12.170  0.00  0.00    +0.099 A 
ATOM     17  C   UNL     1      17.028  29.336   9.955  0.00  0.00    +0.001 A 
ATOM     18  N   UNL     1      20.175  30.712  11.147  0.00  0.00    -0.244 NA
ATOM     19  C   UNL     1      16.726  30.201   8.902  0.00  0.00    +0.000 A 
ENDBRANCH   1  14
BRANCH   6  20
ATOM     20  C   UNL     1      12.580  26.627  14.370  0.00  0.00    +0.003 A 
ATOM     21  C   UNL     1      12.159  25.300  14.545  0.00  0.00    +0.001 A 
ATOM     22  C   UNL     1      10.939  25.055  15.201  0.00  0.00    +0.015 A 
ATOM     23  C   UNL     1      10.143  26.083  15.662  0.00  0.00    +0.048 A 
ATOM     24  C   UNL     1      10.566  27.387  15.490  0.00  0.00    +0.015 A 
ATOM     25  C   UNL     1      11.792  27.646  14.879  0.00  0.00    +0.001 A 
BRANCH  23  26
ATOM     26  N   UNL     1       8.910  25.880  16.362  0.00  0.00    -0.305 N 
ATOM     27  C   UNL     1       7.897  24.952  15.839  0.00  0.00    +0.110 C 
ATOM     28  C   UNL     1       6.701  24.709  16.800  0.00  0.00    +0.110 C 
ATOM     29  N   UNL     1       6.178  25.954  17.415  0.00  0.00    -0.214 NA
ATOM     30  C   UNL     1       7.031  27.132  17.141  0.00  0.00    +0.110 C 
ATOM     31  C   UNL     1       8.492  26.810  17.416  0.00  0.00    +0.110 C 
ENDBRANCH  23  26
ENDBRANCH   6  20
TORSDOF 3
ENDMDL
MODEL 9
REMARK VINA RESULT:      -8.2      5.315      7.959
REMARK  Name = 3Q4U_LDN.pdb
REMARK  3 active torsions:
REMARK  status: ('A' for Active; 'I' for Inactive)
REMARK    1  A    between atoms: _18  and  _19
REMARK    2  A    between atoms: _20  and  _30
REMARK    3  A    between atoms: _21  and  _22
REMARK                            x       y       z     vdW  Elec       q    Type
REMARK                         _______ _______ _______ _____ _____    ______ ____
ROOT
ATOM      1  C   UNL     1      14.375  26.653  15.362  0.00  0.00    +0.057 A 
ATOM      2  C   UNL     1      14.438  26.239  16.680  0.00  0.00    +0.165 A 
ATOM      3  N   UNL     1      13.304  25.398  16.886  0.00  0.00    -0.211 N 
ATOM      4  N   UNL     1      12.653  25.345  15.832  0.00  0.00    -0.162 NA
ATOM      5  C   UNL     1      13.086  24.815  18.110  0.00  0.00    +0.104 A 
ATOM      6  C   UNL     1      13.964  25.075  19.147  0.00  0.00    +0.038 A 
ATOM      7  C   UNL     1      15.086  25.876  18.904  0.00  0.00    +0.102 A 
ATOM      8  N   UNL     1      15.295  26.491  17.699  0.00  0.00    -0.225 NA
ATOM      9  C   UNL     1      13.275  26.095  14.889  0.00  0.00    +0.124 A 
ENDROOT
BRANCH   1  14
ATOM     10  C   UNL     1      18.575  26.288  12.268  0.00  0.00    +0.002 A 
ATOM     11  C   UNL     1      18.277  27.630  12.417  0.00  0.00    +0.019 A 
ATOM     12  C   UNL     1      17.201  28.062  13.187  0.00  0.00    +0.081 A 
ATOM     13  C   UNL     1      16.390  27.105  13.840  0.00  0.00    +0.018 A 
ATOM     14  C   UNL     1      15.293  27.530  14.646  0.00  0.00    +0.008 A 
ATOM     15  C   UNL     1      15.046  28.892  14.663  0.00  0.00    +0.021 A 
ATOM     16  C   UNL     1      15.892  29.806  14.005  0.00  0.00    +0.099 A 
ATOM     17  C   UNL     1      16.726  25.766  13.697  0.00  0.00    +0.001 A 
ATOM     18  N   UNL     1      16.920  29.371  13.270  0.00  0.00    -0.244 NA
ATOM     19  C   UNL     1      17.794  25.334  12.910  0.00  0.00    +0.000 A 
ENDBRANCH   1  14
BRANCH   6  20
ATOM     20  C   UNL     1      13.748  24.415  20.374  0.00  0.00    +0.003 A 
ATOM     21  C   UNL     1      12.506  23.850  20.701  0.00  0.00    +0.001 A 
ATOM     22  C   UNL     1      12.376  23.148  21.913  0.00  0.00    +0.015 A 
ATOM     23  C   UNL     1      13.431  23.014  22.791  0.00  0.00    +0.048 A 
ATOM     24  C   UNL     1      14.653  23.570  22.461  0.00  0.00    +0.015 A 
ATOM     25  C   UNL     1      14.809  24.233  21.244  0.00  0.00    +0.001 A 
BRANCH  23  26
ATOM     26  N   UNL     1      13.355  22.284  24.020  0.00  0.00    -0.305 N 
ATOM     27  C   UNL     1      12.084  22.183  24.752  0.00  0.00    +0.110 C 
ATOM     28  C   UNL     1      12.124  21.213  25.965  0.00  0.00    +0.110 C 
ATOM     29  N   UNL     1      13.339  21.366  26.801  0.00  0.00    -0.214 NA
ATOM     30  C   UNL     1      14.345  22.266  26.194  0.00  0.00    +0.110 C 
ATOM     31  C   UNL     1      14.577  21.900  24.735  0.00  0.00    +0.110 C 
ENDBRANCH  23  26
ENDBRANCH   6  20
TORSDOF 3
ENDMDL
