MODEL 1
REMARK VINA RESULT:      -6.6      0.000      0.000
REMARK  Name = 6GIP_EUN.pdb
REMARK  3 active torsions:
REMARK  status: ('A' for Active; 'I' for Inactive)
REMARK    1  A    between atoms: _1  and  _2
REMARK    2  A    between atoms: _9  and  _10
REMARK    3  A    between atoms: _20  and  _21
REMARK                            x       y       z     vdW  Elec       q    Type
REMARK                         _______ _______ _______ _____ _____    ______ ____
ROOT
ATOM      1  C   UNL     1      10.459  18.142  26.078  0.00  0.00    +0.086 C 
ATOM      2  C   UNL     1       9.716  17.172  25.199  0.00  0.00    +0.107 A 
ATOM      3  N   UNL     1       8.510  17.611  24.590  0.00  0.00    -0.234 NA
ATOM      4  C   UNL     1       7.766  16.703  23.733  0.00  0.00    +0.078 A 
ATOM      5  C   UNL     1       6.575  17.203  23.149  0.00  0.00    +0.029 A 
ATOM      6  C   UNL     1       5.811  16.423  22.311  0.00  0.00    +0.011 A 
ATOM      7  C   UNL     1       6.192  15.122  22.050  0.00  0.00    -0.013 A 
ATOM      8  C   UNL     1       7.378  14.608  22.623  0.00  0.00    -0.028 A 
ATOM      9  C   UNL     1       7.805  13.190  22.318  0.00  0.00    +0.045 C 
ATOM     10  C   UNL     1       8.180  15.429  23.488  0.00  0.00    +0.068 A 
ATOM     11  C   UNL     1       9.466  14.959  24.142  0.00  0.00    +0.259 A 
ATOM     12  O   UNL     1       9.883  13.828  23.966  0.00  0.00    -0.267 OA
ATOM     13  N   UNL     1      10.186  15.844  24.970  0.00  0.00    -0.311 N 
ATOM     14  H   UNL     1      10.962  15.565  25.362  0.00  0.00    +0.170 HD
ENDROOT
BRANCH   7  15
ATOM     15  C   UNL     1       5.397  14.366  21.190  0.00  0.00    -0.007 A 
ATOM     16  C   UNL     1       5.522  14.391  19.762  0.00  0.00    +0.008 A 
ATOM     17  C   UNL     1       6.500  15.191  19.119  0.00  0.00    +0.010 A 
ATOM     18  C   UNL     1       6.599  15.205  17.727  0.00  0.00    +0.001 A 
ATOM     19  C   UNL     1       5.731  14.436  16.958  0.00  0.00    +0.002 A 
ATOM     20  C   UNL     1       4.771  13.657  17.588  0.00  0.00    +0.028 A 
ATOM     21  C   UNL     1       4.673  13.643  19.007  0.00  0.00    +0.072 A 
ATOM     22  N   UNL     1       3.710  12.845  19.602  0.00  0.00    -0.255 NA
ATOM     23  C   UNL     1       3.572  12.795  20.940  0.00  0.00    +0.112 A 
ATOM     24  C   UNL     1       4.416  13.565  21.752  0.00  0.00    +0.029 A 
ENDBRANCH   7  15
TORSDOF 1
ENDMDL
MODEL 2
REMARK VINA RESULT:      -6.4      5.307      6.704
REMARK  Name = 6GIP_EUN.pdb
REMARK  3 active torsions:
REMARK  status: ('A' for Active; 'I' for Inactive)
REMARK    1  A    between atoms: _1  and  _2
REMARK    2  A    between atoms: _9  and  _10
REMARK    3  A    between atoms: _20  and  _21
REMARK                            x       y       z     vdW  Elec       q    Type
REMARK                         _______ _______ _______ _____ _____    ______ ____
ROOT
ATOM      1  C   UNL     1      14.151  18.912  26.964  0.00  0.00    +0.086 C 
ATOM      2  C   UNL     1      13.278  17.714  27.226  0.00  0.00    +0.107 A 
ATOM      3  N   UNL     1      11.878  17.849  27.024  0.00  0.00    -0.234 NA
ATOM      4  C   UNL     1      11.004  16.714  27.265  0.00  0.00    +0.078 A 
ATOM      5  C   UNL     1       9.619  16.911  27.038  0.00  0.00    +0.029 A 
ATOM      6  C   UNL     1       8.714  15.891  27.224  0.00  0.00    +0.011 A 
ATOM      7  C   UNL     1       9.155  14.657  27.663  0.00  0.00    -0.013 A 
ATOM      8  C   UNL     1      10.533  14.443  27.892  0.00  0.00    -0.028 A 
ATOM      9  C   UNL     1      11.015  13.085  28.351  0.00  0.00    +0.045 C 
ATOM     10  C   UNL     1      11.476  15.508  27.685  0.00  0.00    +0.068 A 
ATOM     11  C   UNL     1      12.971  15.364  27.904  0.00  0.00    +0.259 A 
ATOM     12  O   UNL     1      13.450  14.311  28.287  0.00  0.00    -0.267 OA
ATOM     13  N   UNL     1      13.816  16.467  27.667  0.00  0.00    -0.311 N 
ATOM     14  H   UNL     1      14.716  16.383  27.795  0.00  0.00    +0.170 HD
ENDROOT
BRANCH   7  15
ATOM     15  C   UNL     1       8.210  13.646  27.832  0.00  0.00    -0.007 A 
ATOM     16  C   UNL     1       7.798  12.758  26.784  0.00  0.00    +0.008 A 
ATOM     17  C   UNL     1       8.355  12.841  25.483  0.00  0.00    +0.010 A 
ATOM     18  C   UNL     1       7.935  11.970  24.476  0.00  0.00    +0.001 A 
ATOM     19  C   UNL     1       6.959  11.016  24.742  0.00  0.00    +0.002 A 
ATOM     20  C   UNL     1       6.411  10.938  26.016  0.00  0.00    +0.028 A 
ATOM     21  C   UNL     1       6.841  11.825  27.040  0.00  0.00    +0.072 A 
ATOM     22  N   UNL     1       6.280  11.713  28.301  0.00  0.00    -0.255 NA
ATOM     23  C   UNL     1       6.651  12.527  29.307  0.00  0.00    +0.112 A 
ATOM     24  C   UNL     1       7.621  13.512  29.079  0.00  0.00    +0.029 A 
ENDBRANCH   7  15
TORSDOF 1
ENDMDL
MODEL 3
REMARK VINA RESULT:      -6.4      3.311      5.716
REMARK  Name = 6GIP_EUN.pdb
REMARK  3 active torsions:
REMARK  status: ('A' for Active; 'I' for Inactive)
REMARK    1  A    between atoms: _1  and  _2
REMARK    2  A    between atoms: _9  and  _10
REMARK    3  A    between atoms: _20  and  _21
REMARK                            x       y       z     vdW  Elec       q    Type
REMARK                         _______ _______ _______ _____ _____    ______ ____
ROOT
ATOM      1  C   UNL     1      14.602  16.866  30.221  0.00  0.00    +0.086 C 
ATOM      2  C   UNL     1      13.709  16.919  29.011  0.00  0.00    +0.107 A 
ATOM      3  N   UNL     1      12.467  16.231  29.065  0.00  0.00    -0.234 NA
ATOM      4  C   UNL     1      11.577  16.263  27.917  0.00  0.00    +0.078 A 
ATOM      5  C   UNL     1      10.350  15.563  28.037  0.00  0.00    +0.029 A 
ATOM      6  C   UNL     1       9.436  15.547  27.008  0.00  0.00    +0.011 A 
ATOM      7  C   UNL     1       9.723  16.203  25.827  0.00  0.00    -0.013 A 
ATOM      8  C   UNL     1      10.941  16.907  25.692  0.00  0.00    -0.028 A 
ATOM      9  C   UNL     1      11.244  17.642  24.405  0.00  0.00    +0.045 C 
ATOM     10  C   UNL     1      11.888  16.931  26.772  0.00  0.00    +0.068 A 
ATOM     11  C   UNL     1      13.216  17.663  26.713  0.00  0.00    +0.259 A 
ATOM     12  O   UNL     1      13.553  18.272  25.712  0.00  0.00    -0.267 OA
ATOM     13  N   UNL     1      14.075  17.633  27.830  0.00  0.00    -0.311 N 
ATOM     14  H   UNL     1      14.874  18.074  27.798  0.00  0.00    +0.170 HD
ENDROOT
BRANCH   7  15
ATOM     15  C   UNL     1       8.768  16.171  24.811  0.00  0.00    -0.007 A 
ATOM     16  C   UNL     1       8.550  15.039  23.959  0.00  0.00    +0.008 A 
ATOM     17  C   UNL     1       9.294  13.843  24.113  0.00  0.00    +0.010 A 
ATOM     18  C   UNL     1       9.069  12.755  23.268  0.00  0.00    +0.001 A 
ATOM     19  C   UNL     1       8.112  12.840  22.262  0.00  0.00    +0.002 A 
ATOM     20  C   UNL     1       7.386  14.013  22.109  0.00  0.00    +0.028 A 
ATOM     21  C   UNL     1       7.617  15.120  22.972  0.00  0.00    +0.072 A 
ATOM     22  N   UNL     1       6.867  16.271  22.797  0.00  0.00    -0.255 NA
ATOM     23  C   UNL     1       7.045  17.348  23.585  0.00  0.00    +0.112 A 
ATOM     24  C   UNL     1       8.008  17.310  24.602  0.00  0.00    +0.029 A 
ENDBRANCH   7  15
TORSDOF 1
ENDMDL
MODEL 4
REMARK VINA RESULT:      -6.1      7.439     10.321
REMARK  Name = 6GIP_EUN.pdb
REMARK  3 active torsions:
REMARK  status: ('A' for Active; 'I' for Inactive)
REMARK    1  A    between atoms: _1  and  _2
REMARK    2  A    between atoms: _9  and  _10
REMARK    3  A    between atoms: _20  and  _21
REMARK                            x       y       z     vdW  Elec       q    Type
REMARK                         _______ _______ _______ _____ _____    ______ ____
ROOT
ATOM      1  C   UNL     1      10.582  15.826  25.173  0.00  0.00    +0.086 C 
ATOM      2  C   UNL     1      10.266  15.088  26.445  0.00  0.00    +0.107 A 
ATOM      3  N   UNL     1       8.946  14.589  26.619  0.00  0.00    -0.234 NA
ATOM      4  C   UNL     1       8.605  13.869  27.834  0.00  0.00    +0.078 A 
ATOM      5  C   UNL     1       7.275  13.391  27.944  0.00  0.00    +0.029 A 
ATOM      6  C   UNL     1       6.861  12.684  29.050  0.00  0.00    +0.011 A 
ATOM      7  C   UNL     1       7.746  12.455  30.086  0.00  0.00    -0.013 A 
ATOM      8  C   UNL     1       9.075  12.923  29.992  0.00  0.00    -0.028 A 
ATOM      9  C   UNL     1      10.048  12.651  31.118  0.00  0.00    +0.045 C 
ATOM     10  C   UNL     1       9.508  13.650  28.829  0.00  0.00    +0.068 A 
ATOM     11  C   UNL     1      10.916  14.185  28.646  0.00  0.00    +0.259 A 
ATOM     12  O   UNL     1      11.765  14.027  29.506  0.00  0.00    -0.267 OA
ATOM     13  N   UNL     1      11.244  14.881  27.464  0.00  0.00    -0.311 N 
ATOM     14  H   UNL     1      12.091  15.202  27.349  0.00  0.00    +0.170 HD
ENDROOT
BRANCH   7  15
ATOM     15  C   UNL     1       7.292  11.729  31.187  0.00  0.00    -0.007 A 
ATOM     16  C   UNL     1       6.681  12.327  32.338  0.00  0.00    +0.008 A 
ATOM     17  C   UNL     1       6.477  13.726  32.424  0.00  0.00    +0.010 A 
ATOM     18  C   UNL     1       5.887  14.287  33.558  0.00  0.00    +0.001 A 
ATOM     19  C   UNL     1       5.499  13.473  34.617  0.00  0.00    +0.002 A 
ATOM     20  C   UNL     1       5.703  12.103  34.534  0.00  0.00    +0.028 A 
ATOM     21  C   UNL     1       6.304  11.534  33.377  0.00  0.00    +0.072 A 
ATOM     22  N   UNL     1       6.483  10.161  33.324  0.00  0.00    -0.255 NA
ATOM     23  C   UNL     1       7.047   9.571  32.254  0.00  0.00    +0.112 A 
ATOM     24  C   UNL     1       7.465  10.354  31.171  0.00  0.00    +0.029 A 
ENDBRANCH   7  15
TORSDOF 1
ENDMDL
MODEL 5
REMARK VINA RESULT:      -6.1      5.424      6.752
REMARK  Name = 6GIP_EUN.pdb
REMARK  3 active torsions:
REMARK  status: ('A' for Active; 'I' for Inactive)
REMARK    1  A    between atoms: _1  and  _2
REMARK    2  A    between atoms: _9  and  _10
REMARK    3  A    between atoms: _20  and  _21
REMARK                            x       y       z     vdW  Elec       q    Type
REMARK                         _______ _______ _______ _____ _____    ______ ____
ROOT
ATOM      1  C   UNL     1      14.476  18.912  26.890  0.00  0.00    +0.086 C 
ATOM      2  C   UNL     1      13.205  18.107  26.830  0.00  0.00    +0.107 A 
ATOM      3  N   UNL     1      13.162  16.872  27.531  0.00  0.00    -0.234 NA
ATOM      4  C   UNL     1      11.951  16.069  27.497  0.00  0.00    +0.078 A 
ATOM      5  C   UNL     1      11.969  14.851  28.222  0.00  0.00    +0.029 A 
ATOM      6  C   UNL     1      10.865  14.030  28.263  0.00  0.00    +0.011 A 
ATOM      7  C   UNL     1       9.725  14.381  27.567  0.00  0.00    -0.013 A 
ATOM      8  C   UNL     1       9.690  15.593  26.840  0.00  0.00    -0.028 A 
ATOM      9  C   UNL     1       8.433  15.986  26.097  0.00  0.00    +0.045 C 
ATOM     10  C   UNL     1      10.840  16.454  26.810  0.00  0.00    +0.068 A 
ATOM     11  C   UNL     1      10.888  17.771  26.058  0.00  0.00    +0.259 A 
ATOM     12  O   UNL     1       9.928  18.164  25.419  0.00  0.00    -0.267 OA
ATOM     13  N   UNL     1      12.063  18.549  26.096  0.00  0.00    -0.311 N 
ATOM     14  H   UNL     1      12.094  19.343  25.647  0.00  0.00    +0.170 HD
ENDROOT
BRANCH   7  15
ATOM     15  C   UNL     1       8.624  13.528  27.639  0.00  0.00    -0.007 A 
ATOM     16  C   UNL     1       8.313  12.545  26.642  0.00  0.00    +0.008 A 
ATOM     17  C   UNL     1       9.136  12.359  25.504  0.00  0.00    +0.010 A 
ATOM     18  C   UNL     1       8.810  11.400  24.544  0.00  0.00    +0.001 A 
ATOM     19  C   UNL     1       7.668  10.621  24.695  0.00  0.00    +0.002 A 
ATOM     20  C   UNL     1       6.860  10.807  25.809  0.00  0.00    +0.028 A 
ATOM     21  C   UNL     1       7.194  11.784  26.786  0.00  0.00    +0.072 A 
ATOM     22  N   UNL     1       6.371  11.935  27.890  0.00  0.00    -0.255 NA
ATOM     23  C   UNL     1       6.640  12.845  28.844  0.00  0.00    +0.112 A 
ATOM     24  C   UNL     1       7.774  13.660  28.724  0.00  0.00    +0.029 A 
ENDBRANCH   7  15
TORSDOF 1
ENDMDL
MODEL 6
REMARK VINA RESULT:      -6.0      5.938      8.229
REMARK  Name = 6GIP_EUN.pdb
REMARK  3 active torsions:
REMARK  status: ('A' for Active; 'I' for Inactive)
REMARK    1  A    between atoms: _1  and  _2
REMARK    2  A    between atoms: _9  and  _10
REMARK    3  A    between atoms: _20  and  _21
REMARK                            x       y       z     vdW  Elec       q    Type
REMARK                         _______ _______ _______ _____ _____    ______ ____
ROOT
ATOM      1  C   UNL     1       9.561  12.092  34.891  0.00  0.00    +0.086 C 
ATOM      2  C   UNL     1       9.144  12.320  33.463  0.00  0.00    +0.107 A 
ATOM      3  N   UNL     1      10.161  12.527  32.493  0.00  0.00    -0.234 NA
ATOM      4  C   UNL     1       9.795  12.748  31.104  0.00  0.00    +0.078 A 
ATOM      5  C   UNL     1      10.856  12.940  30.184  0.00  0.00    +0.029 A 
ATOM      6  C   UNL     1      10.611  13.142  28.845  0.00  0.00    +0.011 A 
ATOM      7  C   UNL     1       9.308  13.183  28.387  0.00  0.00    -0.013 A 
ATOM      8  C   UNL     1       8.239  12.991  29.291  0.00  0.00    -0.028 A 
ATOM      9  C   UNL     1       6.814  13.015  28.783  0.00  0.00    +0.045 C 
ATOM     10  C   UNL     1       8.499  12.769  30.687  0.00  0.00    +0.068 A 
ATOM     11  C   UNL     1       7.413  12.552  31.723  0.00  0.00    +0.259 A 
ATOM     12  O   UNL     1       6.235  12.568  31.410  0.00  0.00    -0.267 OA
ATOM     13  N   UNL     1       7.772  12.335  33.069  0.00  0.00    -0.311 N 
ATOM     14  H   UNL     1       7.120  12.201  33.695  0.00  0.00    +0.170 HD
ENDROOT
BRANCH   7  15
ATOM     15  C   UNL     1       9.099  13.382  27.023  0.00  0.00    -0.007 A 
ATOM     16  C   UNL     1       8.786  14.655  26.443  0.00  0.00    +0.008 A 
ATOM     17  C   UNL     1       8.688  15.825  27.236  0.00  0.00    +0.010 A 
ATOM     18  C   UNL     1       8.376  17.053  26.650  0.00  0.00    +0.001 A 
ATOM     19  C   UNL     1       8.153  17.136  25.279  0.00  0.00    +0.002 A 
ATOM     20  C   UNL     1       8.246  15.988  24.504  0.00  0.00    +0.028 A 
ATOM     21  C   UNL     1       8.565  14.739  25.103  0.00  0.00    +0.072 A 
ATOM     22  N   UNL     1       8.659  13.616  24.297  0.00  0.00    -0.255 NA
ATOM     23  C   UNL     1       8.957  12.408  24.812  0.00  0.00    +0.112 A 
ATOM     24  C   UNL     1       9.175  12.278  26.190  0.00  0.00    +0.029 A 
ENDBRANCH   7  15
TORSDOF 1
ENDMDL
MODEL 7
REMARK VINA RESULT:      -5.9      7.331      9.263
REMARK  Name = 6GIP_EUN.pdb
REMARK  3 active torsions:
REMARK  status: ('A' for Active; 'I' for Inactive)
REMARK    1  A    between atoms: _1  and  _2
REMARK    2  A    between atoms: _9  and  _10
REMARK    3  A    between atoms: _20  and  _21
REMARK                            x       y       z     vdW  Elec       q    Type
REMARK                         _______ _______ _______ _____ _____    ______ ____
ROOT
ATOM      1  C   UNL     1      13.681  18.231  27.116  0.00  0.00    +0.086 C 
ATOM      2  C   UNL     1      13.038  17.014  27.724  0.00  0.00    +0.107 A 
ATOM      3  N   UNL     1      11.778  16.597  27.216  0.00  0.00    -0.234 NA
ATOM      4  C   UNL     1      11.129  15.425  27.777  0.00  0.00    +0.078 A 
ATOM      5  C   UNL     1       9.878  15.058  27.222  0.00  0.00    +0.029 A 
ATOM      6  C   UNL     1       9.193  13.954  27.677  0.00  0.00    +0.011 A 
ATOM      7  C   UNL     1       9.717  13.201  28.710  0.00  0.00    -0.013 A 
ATOM      8  C   UNL     1      10.965  13.552  29.273  0.00  0.00    -0.028 A 
ATOM      9  C   UNL     1      11.547  12.714  30.389  0.00  0.00    +0.045 C 
ATOM     10  C   UNL     1      11.683  14.699  28.787  0.00  0.00    +0.068 A 
ATOM     11  C   UNL     1      13.026  15.145  29.333  0.00  0.00    +0.259 A 
ATOM     12  O   UNL     1      13.567  14.540  30.242  0.00  0.00    -0.267 OA
ATOM     13  N   UNL     1      13.655  16.281  28.783  0.00  0.00    -0.311 N 
ATOM     14  H   UNL     1      14.465  16.551  29.108  0.00  0.00    +0.170 HD
ENDROOT
BRANCH   7  15
ATOM     15  C   UNL     1       8.999  12.085  29.138  0.00  0.00    -0.007 A 
ATOM     16  C   UNL     1       8.062  12.111  30.223  0.00  0.00    +0.008 A 
ATOM     17  C   UNL     1       7.786  13.305  30.934  0.00  0.00    +0.010 A 
ATOM     18  C   UNL     1       6.876  13.305  31.992  0.00  0.00    +0.001 A 
ATOM     19  C   UNL     1       6.235  12.126  32.361  0.00  0.00    +0.002 A 
ATOM     20  C   UNL     1       6.510  10.955  31.667  0.00  0.00    +0.028 A 
ATOM     21  C   UNL     1       7.437  10.959  30.589  0.00  0.00    +0.072 A 
ATOM     22  N   UNL     1       7.679   9.775  29.912  0.00  0.00    -0.255 NA
ATOM     23  C   UNL     1       8.547   9.721  28.885  0.00  0.00    +0.112 A 
ATOM     24  C   UNL     1       9.225  10.882  28.489  0.00  0.00    +0.029 A 
ENDBRANCH   7  15
TORSDOF 1
ENDMDL
MODEL 8
REMARK VINA RESULT:      -5.7      4.050      6.684
REMARK  Name = 6GIP_EUN.pdb
REMARK  3 active torsions:
REMARK  status: ('A' for Active; 'I' for Inactive)
REMARK    1  A    between atoms: _1  and  _2
REMARK    2  A    between atoms: _9  and  _10
REMARK    3  A    between atoms: _20  and  _21
REMARK                            x       y       z     vdW  Elec       q    Type
REMARK                         _______ _______ _______ _____ _____    ______ ____
ROOT
ATOM      1  C   UNL     1       8.688   9.043  28.514  0.00  0.00    +0.086 C 
ATOM      2  C   UNL     1       9.078  10.285  27.758  0.00  0.00    +0.107 A 
ATOM      3  N   UNL     1       8.473  11.515  28.134  0.00  0.00    -0.234 NA
ATOM      4  C   UNL     1       8.826  12.735  27.429  0.00  0.00    +0.078 A 
ATOM      5  C   UNL     1       8.193  13.929  27.856  0.00  0.00    +0.029 A 
ATOM      6  C   UNL     1       8.474  15.137  27.259  0.00  0.00    +0.011 A 
ATOM      7  C   UNL     1       9.369  15.189  26.208  0.00  0.00    -0.013 A 
ATOM      8  C   UNL     1      10.010  14.008  25.771  0.00  0.00    -0.028 A 
ATOM      9  C   UNL     1      11.006  14.072  24.635  0.00  0.00    +0.045 C 
ATOM     10  C   UNL     1       9.724  12.750  26.405  0.00  0.00    +0.068 A 
ATOM     11  C   UNL     1      10.367  11.437  26.000  0.00  0.00    +0.259 A 
ATOM     12  O   UNL     1      11.171  11.387  25.086  0.00  0.00    -0.267 OA
ATOM     13  N   UNL     1      10.024  10.256  26.689  0.00  0.00    -0.311 N 
ATOM     14  H   UNL     1      10.411   9.464  26.451  0.00  0.00    +0.170 HD
ENDROOT
BRANCH   7  15
ATOM     15  C   UNL     1       9.635  16.432  25.635  0.00  0.00    -0.007 A 
ATOM     16  C   UNL     1       9.018  16.899  24.427  0.00  0.00    +0.008 A 
ATOM     17  C   UNL     1       8.062  16.116  23.734  0.00  0.00    +0.010 A 
ATOM     18  C   UNL     1       7.480  16.588  22.557  0.00  0.00    +0.001 A 
ATOM     19  C   UNL     1       7.840  17.833  22.051  0.00  0.00    +0.002 A 
ATOM     20  C   UNL     1       8.780  18.598  22.728  0.00  0.00    +0.028 A 
ATOM     21  C   UNL     1       9.371  18.115  23.928  0.00  0.00    +0.072 A 
ATOM     22  N   UNL     1      10.298  18.909  24.583  0.00  0.00    -0.255 NA
ATOM     23  C   UNL     1      10.889  18.500  25.722  0.00  0.00    +0.112 A 
ATOM     24  C   UNL     1      10.565  17.247  26.259  0.00  0.00    +0.029 A 
ENDBRANCH   7  15
TORSDOF 1
ENDMDL
MODEL 9
REMARK VINA RESULT:      -5.7      5.091      7.896
REMARK  Name = 6GIP_EUN.pdb
REMARK  3 active torsions:
REMARK  status: ('A' for Active; 'I' for Inactive)
REMARK    1  A    between atoms: _1  and  _2
REMARK    2  A    between atoms: _9  and  _10
REMARK    3  A    between atoms: _20  and  _21
REMARK                            x       y       z     vdW  Elec       q    Type
REMARK                         _______ _______ _______ _____ _____    ______ ____
ROOT
ATOM      1  C   UNL     1       9.409   7.913  27.250  0.00  0.00    +0.086 C 
ATOM      2  C   UNL     1       9.690   9.293  26.718  0.00  0.00    +0.107 A 
ATOM      3  N   UNL     1       8.883  10.366  27.182  0.00  0.00    -0.234 NA
ATOM      4  C   UNL     1       9.126  11.712  26.692  0.00  0.00    +0.078 A 
ATOM      5  C   UNL     1       8.292  12.740  27.199  0.00  0.00    +0.029 A 
ATOM      6  C   UNL     1       8.455  14.049  26.806  0.00  0.00    +0.011 A 
ATOM      7  C   UNL     1       9.432  14.369  25.883  0.00  0.00    -0.013 A 
ATOM      8  C   UNL     1      10.274  13.357  25.370  0.00  0.00    -0.028 A 
ATOM      9  C   UNL     1      11.357  13.714  24.377  0.00  0.00    +0.045 C 
ATOM     10  C   UNL     1      10.109  11.993  25.792  0.00  0.00    +0.068 A 
ATOM     11  C   UNL     1      10.968  10.847  25.293  0.00  0.00    +0.259 A 
ATOM     12  O   UNL     1      11.857  11.035  24.481  0.00  0.00    -0.267 OA
ATOM     13  N   UNL     1      10.731   9.542  25.773  0.00  0.00    -0.311 N 
ATOM     14  H   UNL     1      11.248   8.851  25.477  0.00  0.00    +0.170 HD
ENDROOT
BRANCH   7  15
ATOM     15  C   UNL     1       9.573  15.707  25.516  0.00  0.00    -0.007 A 
ATOM     16  C   UNL     1      10.365  16.654  26.246  0.00  0.00    +0.008 A 
ATOM     17  C   UNL     1      11.090  16.275  27.404  0.00  0.00    +0.010 A 
ATOM     18  C   UNL     1      11.849  17.215  28.103  0.00  0.00    +0.001 A 
ATOM     19  C   UNL     1      11.896  18.536  27.669  0.00  0.00    +0.002 A 
ATOM     20  C   UNL     1      11.182  18.906  26.537  0.00  0.00    +0.028 A 
ATOM     21  C   UNL     1      10.410  17.947  25.827  0.00  0.00    +0.072 A 
ATOM     22  N   UNL     1       9.719  18.350  24.696  0.00  0.00    -0.255 NA
ATOM     23  C   UNL     1       8.972  17.483  23.987  0.00  0.00    +0.112 A 
ATOM     24  C   UNL     1       8.886  16.146  24.396  0.00  0.00    +0.029 A 
ENDBRANCH   7  15
TORSDOF 1
ENDMDL
