MODEL 1
REMARK VINA RESULT:      -7.1      0.000      0.000
REMARK  Name = 3OOM_507.pdb
REMARK  4 active torsions:
REMARK  status: ('A' for Active; 'I' for Inactive)
REMARK    1  A    between atoms: _1  and  _18
REMARK    2  A    between atoms: _16  and  _24
REMARK    3  A    between atoms: _18  and  _19
REMARK    4  A    between atoms: _20  and  _22
REMARK                            x       y       z     vdW  Elec       q    Type
REMARK                         _______ _______ _______ _____ _____    ______ ____
ROOT
ATOM      1  C   UNL     1      10.167  23.392  19.148  0.00  0.00    +0.093 A 
ATOM      2  N   UNL     1       8.857  23.535  18.774  0.00  0.00    -0.211 N 
ATOM      3  C   UNL     1       8.171  22.467  19.289  0.00  0.00    +0.155 A 
ATOM      4  N   UNL     1       9.027  21.699  19.954  0.00  0.00    -0.234 NA
ATOM      5  C   UNL     1       6.787  22.360  19.054  0.00  0.00    +0.051 A 
ATOM      6  C   UNL     1       6.161  23.319  18.320  0.00  0.00    +0.049 A 
ATOM      7  C   UNL     1       6.895  24.405  17.805  0.00  0.00    +0.140 A 
ATOM      8  N   UNL     1       6.244  25.381  17.055  0.00  0.00    -0.325 N 
ATOM      9  H   UNL     1       5.292  25.310  16.889  0.00  0.00    +0.148 HD
ATOM     10  N   UNL     1       8.184  24.505  18.024  0.00  0.00    -0.150 NA
ATOM     11  C   UNL     1      10.243  22.231  19.888  0.00  0.00    +0.141 A 
ENDROOT
BRANCH   1  14
ATOM     12  C   UNL     1      12.184  26.128  17.525  0.00  0.00    +0.018 A 
ATOM     13  C   UNL     1      11.124  25.271  17.829  0.00  0.00    +0.021 A 
ATOM     14  C   UNL     1      11.282  24.305  18.821  0.00  0.00    +0.003 A 
ATOM     15  C   UNL     1      12.496  24.201  19.505  0.00  0.00    +0.010 A 
ATOM     16  C   UNL     1      13.540  25.052  19.200  0.00  0.00    +0.001 A 
ATOM     17  C   UNL     1      13.393  26.012  18.219  0.00  0.00    +0.011 A 
BRANCH  12  19
ATOM     18  C   UNL     1      10.894  27.054  15.492  0.00  0.00    +0.091 C 
ATOM     19  C   UNL     1      12.028  27.152  16.480  0.00  0.00    +0.160 C 
ATOM     20  O   UNL     1      12.813  28.075  16.413  0.00  0.00    -0.292 OA
ENDBRANCH  12  19
ENDBRANCH   1  14
BRANCH   8  21
ATOM     21  C   UNL     1       7.001  26.513  16.515  0.00  0.00    +0.076 C 
ATOM     22  C   UNL     1       6.223  27.144  15.356  0.00  0.00    +0.050 C 
ATOM     23  C   UNL     1       6.981  28.373  14.851  0.00  0.00    +0.161 C 
ATOM     24  O   UNL     1       7.162  29.296  15.927  0.00  0.00    -0.380 OA
ATOM     25  C   UNL     1       7.924  28.776  17.019  0.00  0.00    +0.161 C 
ATOM     26  C   UNL     1       7.203  27.563  17.612  0.00  0.00    +0.050 C 
ENDBRANCH   8  21
TORSDOF 3
ENDMDL
MODEL 2
REMARK VINA RESULT:      -6.5      1.947      2.430
REMARK  Name = 3OOM_507.pdb
REMARK  4 active torsions:
REMARK  status: ('A' for Active; 'I' for Inactive)
REMARK    1  A    between atoms: _1  and  _18
REMARK    2  A    between atoms: _16  and  _24
REMARK    3  A    between atoms: _18  and  _19
REMARK    4  A    between atoms: _20  and  _22
REMARK                            x       y       z     vdW  Elec       q    Type
REMARK                         _______ _______ _______ _____ _____    ______ ____
ROOT
ATOM      1  C   UNL     1      10.757  23.420  20.344  0.00  0.00    +0.093 A 
ATOM      2  N   UNL     1       9.392  23.328  20.271  0.00  0.00    -0.211 N 
ATOM      3  C   UNL     1       8.942  23.005  21.524  0.00  0.00    +0.155 A 
ATOM      4  N   UNL     1       9.990  22.903  22.333  0.00  0.00    -0.234 NA
ATOM      5  C   UNL     1       7.559  22.845  21.738  0.00  0.00    +0.051 A 
ATOM      6  C   UNL     1       6.701  23.015  20.696  0.00  0.00    +0.049 A 
ATOM      7  C   UNL     1       7.196  23.347  19.421  0.00  0.00    +0.140 A 
ATOM      8  N   UNL     1       6.309  23.519  18.362  0.00  0.00    -0.325 N 
ATOM      9  H   UNL     1       5.356  23.408  18.505  0.00  0.00    +0.148 HD
ATOM     10  N   UNL     1       8.484  23.496  19.221  0.00  0.00    -0.150 NA
ATOM     11  C   UNL     1      11.103  23.148  21.651  0.00  0.00    +0.141 A 
ENDROOT
BRANCH   1  14
ATOM     12  C   UNL     1      12.424  25.255  17.508  0.00  0.00    +0.018 A 
ATOM     13  C   UNL     1      11.550  24.955  18.556  0.00  0.00    +0.021 A 
ATOM     14  C   UNL     1      11.679  23.746  19.236  0.00  0.00    +0.003 A 
ATOM     15  C   UNL     1      12.679  22.843  18.868  0.00  0.00    +0.010 A 
ATOM     16  C   UNL     1      13.541  23.145  17.832  0.00  0.00    +0.001 A 
ATOM     17  C   UNL     1      13.422  24.340  17.152  0.00  0.00    +0.011 A 
BRANCH  12  19
ATOM     18  C   UNL     1      10.996  27.287  16.812  0.00  0.00    +0.091 C 
ATOM     19  C   UNL     1      12.298  26.530  16.783  0.00  0.00    +0.160 C 
ATOM     20  O   UNL     1      13.243  26.970  16.163  0.00  0.00    -0.292 OA
ENDBRANCH  12  19
ENDBRANCH   1  14
BRANCH   8  21
ATOM     21  C   UNL     1       6.816  23.864  17.031  0.00  0.00    +0.076 C 
ATOM     22  C   UNL     1       5.871  23.308  15.962  0.00  0.00    +0.050 C 
ATOM     23  C   UNL     1       6.365  23.741  14.580  0.00  0.00    +0.161 C 
ATOM     24  O   UNL     1       6.438  25.168  14.526  0.00  0.00    -0.380 OA
ATOM     25  C   UNL     1       7.343  25.740  15.473  0.00  0.00    +0.161 C 
ATOM     26  C   UNL     1       6.888  25.388  16.891  0.00  0.00    +0.050 C 
ENDBRANCH   8  21
TORSDOF 3
ENDMDL
MODEL 3
REMARK VINA RESULT:      -5.8     15.928     17.059
REMARK  Name = 3OOM_507.pdb
REMARK  4 active torsions:
REMARK  status: ('A' for Active; 'I' for Inactive)
REMARK    1  A    between atoms: _1  and  _18
REMARK    2  A    between atoms: _16  and  _24
REMARK    3  A    between atoms: _18  and  _19
REMARK    4  A    between atoms: _20  and  _22
REMARK                            x       y       z     vdW  Elec       q    Type
REMARK                         _______ _______ _______ _____ _____    ______ ____
ROOT
ATOM      1  C   UNL     1      10.673  33.971  29.967  0.00  0.00    +0.093 A 
ATOM      2  N   UNL     1       9.432  34.520  30.157  0.00  0.00    -0.211 N 
ATOM      3  C   UNL     1       9.270  35.492  29.206  0.00  0.00    +0.155 A 
ATOM      4  N   UNL     1      10.369  35.537  28.461  0.00  0.00    -0.234 NA
ATOM      5  C   UNL     1       8.069  36.226  29.170  0.00  0.00    +0.051 A 
ATOM      6  C   UNL     1       7.096  35.955  30.081  0.00  0.00    +0.049 A 
ATOM      7  C   UNL     1       7.294  34.949  31.046  0.00  0.00    +0.140 A 
ATOM      8  N   UNL     1       6.291  34.678  31.973  0.00  0.00    -0.325 N 
ATOM      9  H   UNL     1       5.464  35.182  31.953  0.00  0.00    +0.148 HD
ATOM     10  N   UNL     1       8.412  34.264  31.080  0.00  0.00    -0.150 NA
ATOM     11  C   UNL     1      11.237  34.630  28.895  0.00  0.00    +0.141 A 
ENDROOT
BRANCH   1  14
ATOM     12  C   UNL     1      12.409  32.124  32.753  0.00  0.00    +0.018 A 
ATOM     13  C   UNL     1      11.828  33.156  32.013  0.00  0.00    +0.021 A 
ATOM     14  C   UNL     1      11.287  32.884  30.758  0.00  0.00    +0.003 A 
ATOM     15  C   UNL     1      11.329  31.584  30.248  0.00  0.00    +0.010 A 
ATOM     16  C   UNL     1      11.904  30.567  30.985  0.00  0.00    +0.001 A 
ATOM     17  C   UNL     1      12.442  30.826  32.229  0.00  0.00    +0.011 A 
BRANCH  12  19
ATOM     18  C   UNL     1      13.131  31.284  35.083  0.00  0.00    +0.091 C 
ATOM     19  C   UNL     1      12.982  32.399  34.080  0.00  0.00    +0.160 C 
ATOM     20  O   UNL     1      13.334  33.524  34.367  0.00  0.00    -0.292 OA
ENDBRANCH  12  19
ENDBRANCH   1  14
BRANCH   8  21
ATOM     21  C   UNL     1       6.489  33.633  32.981  0.00  0.00    +0.076 C 
ATOM     22  C   UNL     1       6.878  34.275  34.316  0.00  0.00    +0.050 C 
ATOM     23  C   UNL     1       7.005  33.183  35.380  0.00  0.00    +0.161 C 
ATOM     24  O   UNL     1       5.770  32.470  35.480  0.00  0.00    -0.380 OA
ATOM     25  C   UNL     1       5.380  31.810  34.274  0.00  0.00    +0.161 C 
ATOM     26  C   UNL     1       5.187  32.847  33.165  0.00  0.00    +0.050 C 
ENDBRANCH   8  21
TORSDOF 3
ENDMDL
MODEL 4
REMARK VINA RESULT:      -5.7     15.788     16.932
REMARK  Name = 3OOM_507.pdb
REMARK  4 active torsions:
REMARK  status: ('A' for Active; 'I' for Inactive)
REMARK    1  A    between atoms: _1  and  _18
REMARK    2  A    between atoms: _16  and  _24
REMARK    3  A    between atoms: _18  and  _19
REMARK    4  A    between atoms: _20  and  _22
REMARK                            x       y       z     vdW  Elec       q    Type
REMARK                         _______ _______ _______ _____ _____    ______ ____
ROOT
ATOM      1  C   UNL     1      10.504  35.168  29.513  0.00  0.00    +0.093 A 
ATOM      2  N   UNL     1       9.157  35.369  29.660  0.00  0.00    -0.211 N 
ATOM      3  C   UNL     1       8.711  35.971  28.513  0.00  0.00    +0.155 A 
ATOM      4  N   UNL     1       9.744  36.131  27.694  0.00  0.00    -0.234 NA
ATOM      5  C   UNL     1       7.346  36.296  28.393  0.00  0.00    +0.051 A 
ATOM      6  C   UNL     1       6.501  36.007  29.419  0.00  0.00    +0.049 A 
ATOM      7  C   UNL     1       6.991  35.388  30.584  0.00  0.00    +0.140 A 
ATOM      8  N   UNL     1       6.117  35.096  31.628  0.00  0.00    -0.325 N 
ATOM      9  H   UNL     1       5.177  35.319  31.550  0.00  0.00    +0.148 HD
ATOM     10  N   UNL     1       8.263  35.084  30.697  0.00  0.00    -0.150 NA
ATOM     11  C   UNL     1      10.844  35.656  28.269  0.00  0.00    +0.141 A 
ENDROOT
BRANCH   1  14
ATOM     12  C   UNL     1      12.314  32.586  31.573  0.00  0.00    +0.018 A 
ATOM     13  C   UNL     1      11.451  33.163  30.639  0.00  0.00    +0.021 A 
ATOM     14  C   UNL     1      11.416  34.549  30.497  0.00  0.00    +0.003 A 
ATOM     15  C   UNL     1      12.243  35.351  31.288  0.00  0.00    +0.010 A 
ATOM     16  C   UNL     1      13.094  34.774  32.210  0.00  0.00    +0.001 A 
ATOM     17  C   UNL     1      13.136  33.403  32.357  0.00  0.00    +0.011 A 
BRANCH  12  19
ATOM     18  C   UNL     1      11.615  30.238  30.766  0.00  0.00    +0.091 C 
ATOM     19  C   UNL     1      12.360  31.123  31.731  0.00  0.00    +0.160 C 
ATOM     20  O   UNL     1      12.998  30.631  32.638  0.00  0.00    -0.292 OA
ENDBRANCH  12  19
ENDBRANCH   1  14
BRANCH   8  21
ATOM     21  C   UNL     1       6.620  34.453  32.845  0.00  0.00    +0.076 C 
ATOM     22  C   UNL     1       6.391  35.376  34.045  0.00  0.00    +0.050 C 
ATOM     23  C   UNL     1       6.846  34.665  35.321  0.00  0.00    +0.161 C 
ATOM     24  O   UNL     1       6.131  33.435  35.460  0.00  0.00    -0.380 OA
ATOM     25  C   UNL     1       6.344  32.513  34.389  0.00  0.00    +0.161 C 
ATOM     26  C   UNL     1       5.869  33.138  33.075  0.00  0.00    +0.050 C 
ENDBRANCH   8  21
TORSDOF 3
ENDMDL
MODEL 5
REMARK VINA RESULT:      -5.7     13.972     16.080
REMARK  Name = 3OOM_507.pdb
REMARK  4 active torsions:
REMARK  status: ('A' for Active; 'I' for Inactive)
REMARK    1  A    between atoms: _1  and  _18
REMARK    2  A    between atoms: _16  and  _24
REMARK    3  A    between atoms: _18  and  _19
REMARK    4  A    between atoms: _20  and  _22
REMARK                            x       y       z     vdW  Elec       q    Type
REMARK                         _______ _______ _______ _____ _____    ______ ____
ROOT
ATOM      1  C   UNL     1       6.876  39.475  27.540  0.00  0.00    +0.093 A 
ATOM      2  N   UNL     1       6.510  40.064  26.358  0.00  0.00    -0.211 N 
ATOM      3  C   UNL     1       5.877  41.238  26.672  0.00  0.00    +0.155 A 
ATOM      4  N   UNL     1       5.856  41.363  27.994  0.00  0.00    -0.234 NA
ATOM      5  C   UNL     1       5.391  42.055  25.634  0.00  0.00    +0.051 A 
ATOM      6  C   UNL     1       5.559  41.662  24.343  0.00  0.00    +0.049 A 
ATOM      7  C   UNL     1       6.215  40.450  24.054  0.00  0.00    +0.140 A 
ATOM      8  N   UNL     1       6.382  40.056  22.729  0.00  0.00    -0.325 N 
ATOM      9  H   UNL     1       6.048  40.616  22.012  0.00  0.00    +0.148 HD
ATOM     10  N   UNL     1       6.668  39.687  25.021  0.00  0.00    -0.150 NA
ATOM     11  C   UNL     1       6.452  40.313  28.549  0.00  0.00    +0.141 A 
ENDROOT
BRANCH   1  14
ATOM     12  C   UNL     1       9.572  36.846  27.435  0.00  0.00    +0.018 A 
ATOM     13  C   UNL     1       8.909  38.066  27.281  0.00  0.00    +0.021 A 
ATOM     14  C   UNL     1       7.586  38.189  27.701  0.00  0.00    +0.003 A 
ATOM     15  C   UNL     1       6.932  37.094  28.272  0.00  0.00    +0.010 A 
ATOM     16  C   UNL     1       7.594  35.891  28.422  0.00  0.00    +0.001 A 
ATOM     17  C   UNL     1       8.904  35.759  28.010  0.00  0.00    +0.011 A 
BRANCH  12  19
ATOM     18  C   UNL     1      11.718  35.425  27.262  0.00  0.00    +0.091 C 
ATOM     19  C   UNL     1      10.970  36.706  26.996  0.00  0.00    +0.160 C 
ATOM     20  O   UNL     1      11.519  37.621  26.419  0.00  0.00    -0.292 OA
ENDBRANCH  12  19
ENDBRANCH   1  14
BRANCH   8  21
ATOM     21  C   UNL     1       7.063  38.796  22.421  0.00  0.00    +0.076 C 
ATOM     22  C   UNL     1       6.075  37.827  21.765  0.00  0.00    +0.050 C 
ATOM     23  C   UNL     1       6.813  36.545  21.374  0.00  0.00    +0.161 C 
ATOM     24  O   UNL     1       7.894  36.866  20.497  0.00  0.00    -0.380 OA
ATOM     25  C   UNL     1       8.874  37.733  21.073  0.00  0.00    +0.161 C 
ATOM     26  C   UNL     1       8.219  39.063  21.451  0.00  0.00    +0.050 C 
ENDBRANCH   8  21
TORSDOF 3
ENDMDL
MODEL 6
REMARK VINA RESULT:      -5.7     19.061     20.941
REMARK  Name = 3OOM_507.pdb
REMARK  4 active torsions:
REMARK  status: ('A' for Active; 'I' for Inactive)
REMARK    1  A    between atoms: _1  and  _18
REMARK    2  A    between atoms: _16  and  _24
REMARK    3  A    between atoms: _18  and  _19
REMARK    4  A    between atoms: _20  and  _22
REMARK                            x       y       z     vdW  Elec       q    Type
REMARK                         _______ _______ _______ _____ _____    ______ ____
ROOT
ATOM      1  C   UNL     1       0.760  32.083  34.583  0.00  0.00    +0.093 A 
ATOM      2  N   UNL     1       1.653  31.117  34.199  0.00  0.00    -0.211 N 
ATOM      3  C   UNL     1       2.644  31.743  33.491  0.00  0.00    +0.155 A 
ATOM      4  N   UNL     1       2.370  33.042  33.443  0.00  0.00    -0.234 NA
ATOM      5  C   UNL     1       3.705  30.978  32.970  0.00  0.00    +0.051 A 
ATOM      6  C   UNL     1       3.722  29.634  33.182  0.00  0.00    +0.049 A 
ATOM      7  C   UNL     1       2.688  29.022  33.915  0.00  0.00    +0.140 A 
ATOM      8  N   UNL     1       2.716  27.646  34.126  0.00  0.00    -0.325 N 
ATOM      9  H   UNL     1       3.444  27.115  33.768  0.00  0.00    +0.148 HD
ATOM     10  N   UNL     1       1.699  29.734  34.400  0.00  0.00    -0.150 NA
ATOM     11  C   UNL     1       1.237  33.281  34.094  0.00  0.00    +0.141 A 
ENDROOT
BRANCH   1  14
ATOM     12  C   UNL     1      -2.785  31.198  35.499  0.00  0.00    +0.018 A 
ATOM     13  C   UNL     1      -1.621  31.385  34.750  0.00  0.00    +0.021 A 
ATOM     14  C   UNL     1      -0.475  31.880  35.369  0.00  0.00    +0.003 A 
ATOM     15  C   UNL     1      -0.497  32.185  36.732  0.00  0.00    +0.010 A 
ATOM     16  C   UNL     1      -1.650  31.997  37.468  0.00  0.00    +0.001 A 
ATOM     17  C   UNL     1      -2.790  31.508  36.864  0.00  0.00    +0.011 A 
BRANCH  12  19
ATOM     18  C   UNL     1      -4.599  31.396  33.677  0.00  0.00    +0.091 C 
ATOM     19  C   UNL     1      -4.001  30.675  34.856  0.00  0.00    +0.160 C 
ATOM     20  O   UNL     1      -4.522  29.663  35.277  0.00  0.00    -0.292 OA
ENDBRANCH  12  19
ENDBRANCH   1  14
BRANCH   8  21
ATOM     21  C   UNL     1       1.643  27.001  34.887  0.00  0.00    +0.076 C 
ATOM     22  C   UNL     1       0.864  26.052  33.972  0.00  0.00    +0.050 C 
ATOM     23  C   UNL     1      -0.203  25.324  34.793  0.00  0.00    +0.161 C 
ATOM     24  O   UNL     1       0.423  24.621  35.869  0.00  0.00    -0.380 OA
ATOM     25  C   UNL     1       1.127  25.463  36.783  0.00  0.00    +0.161 C 
ATOM     26  C   UNL     1       2.248  26.197  36.042  0.00  0.00    +0.050 C 
ENDBRANCH   8  21
TORSDOF 3
ENDMDL
MODEL 7
REMARK VINA RESULT:      -5.6     16.586     17.405
REMARK  Name = 3OOM_507.pdb
REMARK  4 active torsions:
REMARK  status: ('A' for Active; 'I' for Inactive)
REMARK    1  A    between atoms: _1  and  _18
REMARK    2  A    between atoms: _16  and  _24
REMARK    3  A    between atoms: _18  and  _19
REMARK    4  A    between atoms: _20  and  _22
REMARK                            x       y       z     vdW  Elec       q    Type
REMARK                         _______ _______ _______ _____ _____    ______ ____
ROOT
ATOM      1  C   UNL     1      11.692  31.338  33.905  0.00  0.00    +0.093 A 
ATOM      2  N   UNL     1      10.692  31.323  34.842  0.00  0.00    -0.211 N 
ATOM      3  C   UNL     1      11.267  30.986  36.039  0.00  0.00    +0.155 A 
ATOM      4  N   UNL     1      12.568  30.802  35.843  0.00  0.00    -0.234 NA
ATOM      5  C   UNL     1      10.459  30.896  37.188  0.00  0.00    +0.051 A 
ATOM      6  C   UNL     1       9.125  31.144  37.085  0.00  0.00    +0.049 A 
ATOM      7  C   UNL     1       8.566  31.489  35.840  0.00  0.00    +0.140 A 
ATOM      8  N   UNL     1       7.200  31.742  35.745  0.00  0.00    -0.325 N 
ATOM      9  H   UNL     1       6.640  31.679  36.534  0.00  0.00    +0.148 HD
ATOM     10  N   UNL     1       9.319  31.574  34.768  0.00  0.00    -0.150 NA
ATOM     11  C   UNL     1      12.858  31.007  34.563  0.00  0.00    +0.141 A 
ENDROOT
BRANCH   1  14
ATOM     12  C   UNL     1      10.981  33.196  30.706  0.00  0.00    +0.018 A 
ATOM     13  C   UNL     1      11.117  32.911  32.067  0.00  0.00    +0.021 A 
ATOM     14  C   UNL     1      11.548  31.649  32.467  0.00  0.00    +0.003 A 
ATOM     15  C   UNL     1      11.842  30.676  31.508  0.00  0.00    +0.010 A 
ATOM     16  C   UNL     1      11.707  30.963  30.164  0.00  0.00    +0.001 A 
ATOM     17  C   UNL     1      11.280  32.211  29.757  0.00  0.00    +0.011 A 
BRANCH  12  19
ATOM     18  C   UNL     1       9.103  34.954  30.516  0.00  0.00    +0.091 C 
ATOM     19  C   UNL     1      10.527  34.526  30.271  0.00  0.00    +0.160 C 
ATOM     20  O   UNL     1      11.300  35.279  29.716  0.00  0.00    -0.292 OA
ENDBRANCH  12  19
ENDBRANCH   1  14
BRANCH   8  21
ATOM     21  C   UNL     1       6.611  32.101  34.453  0.00  0.00    +0.076 C 
ATOM     22  C   UNL     1       5.172  31.580  34.383  0.00  0.00    +0.050 C 
ATOM     23  C   UNL     1       4.538  32.027  33.064  0.00  0.00    +0.161 C 
ATOM     24  O   UNL     1       4.586  33.453  32.973  0.00  0.00    -0.380 OA
ATOM     25  C   UNL     1       5.909  33.993  32.986  0.00  0.00    +0.161 C 
ATOM     26  C   UNL     1       6.598  33.625  34.302  0.00  0.00    +0.050 C 
ENDBRANCH   8  21
TORSDOF 3
ENDMDL
MODEL 8
REMARK VINA RESULT:      -5.5     16.157     17.450
REMARK  Name = 3OOM_507.pdb
REMARK  4 active torsions:
REMARK  status: ('A' for Active; 'I' for Inactive)
REMARK    1  A    between atoms: _1  and  _18
REMARK    2  A    between atoms: _16  and  _24
REMARK    3  A    between atoms: _18  and  _19
REMARK    4  A    between atoms: _20  and  _22
REMARK                            x       y       z     vdW  Elec       q    Type
REMARK                         _______ _______ _______ _____ _____    ______ ____
ROOT
ATOM      1  C   UNL     1       9.196  34.012  30.725  0.00  0.00    +0.093 A 
ATOM      2  N   UNL     1       8.978  33.124  31.746  0.00  0.00    -0.211 N 
ATOM      3  C   UNL     1      10.161  32.472  31.973  0.00  0.00    +0.155 A 
ATOM      4  N   UNL     1      11.069  32.942  31.125  0.00  0.00    -0.234 NA
ATOM      5  C   UNL     1      10.222  31.491  32.981  0.00  0.00    +0.051 A 
ATOM      6  C   UNL     1       9.106  31.212  33.707  0.00  0.00    +0.049 A 
ATOM      7  C   UNL     1       7.906  31.901  33.449  0.00  0.00    +0.140 A 
ATOM      8  N   UNL     1       6.770  31.608  34.198  0.00  0.00    -0.325 N 
ATOM      9  H   UNL     1       6.808  30.933  34.892  0.00  0.00    +0.148 HD
ATOM     10  N   UNL     1       7.848  32.815  32.509  0.00  0.00    -0.150 NA
ATOM     11  C   UNL     1      10.517  33.875  30.357  0.00  0.00    +0.141 A 
ENDROOT
BRANCH   1  14
ATOM     12  C   UNL     1       6.126  36.149  30.279  0.00  0.00    +0.018 A 
ATOM     13  C   UNL     1       7.058  35.276  30.846  0.00  0.00    +0.021 A 
ATOM     14  C   UNL     1       8.206  34.937  30.134  0.00  0.00    +0.003 A 
ATOM     15  C   UNL     1       8.419  35.470  28.860  0.00  0.00    +0.010 A 
ATOM     16  C   UNL     1       7.495  36.333  28.305  0.00  0.00    +0.001 A 
ATOM     17  C   UNL     1       6.354  36.675  29.003  0.00  0.00    +0.011 A 
BRANCH  12  19
ATOM     18  C   UNL     1       4.530  37.964  31.179  0.00  0.00    +0.091 C 
ATOM     19  C   UNL     1       4.910  36.515  31.023  0.00  0.00    +0.160 C 
ATOM     20  O   UNL     1       4.213  35.649  31.510  0.00  0.00    -0.292 OA
ENDBRANCH  12  19
ENDBRANCH   1  14
BRANCH   8  21
ATOM     21  C   UNL     1       5.516  32.320  33.935  0.00  0.00    +0.076 C 
ATOM     22  C   UNL     1       4.513  31.367  33.279  0.00  0.00    +0.050 C 
ATOM     23  C   UNL     1       3.182  32.096  33.081  0.00  0.00    +0.161 C 
ATOM     24  O   UNL     1       2.708  32.572  34.343  0.00  0.00    -0.380 OA
ATOM     25  C   UNL     1       3.585  33.504  34.980  0.00  0.00    +0.161 C 
ATOM     26  C   UNL     1       4.932  32.831  35.255  0.00  0.00    +0.050 C 
ENDBRANCH   8  21
TORSDOF 3
ENDMDL
MODEL 9
REMARK VINA RESULT:      -5.5     15.905     17.170
REMARK  Name = 3OOM_507.pdb
REMARK  4 active torsions:
REMARK  status: ('A' for Active; 'I' for Inactive)
REMARK    1  A    between atoms: _1  and  _18
REMARK    2  A    between atoms: _16  and  _24
REMARK    3  A    between atoms: _18  and  _19
REMARK    4  A    between atoms: _20  and  _22
REMARK                            x       y       z     vdW  Elec       q    Type
REMARK                         _______ _______ _______ _____ _____    ______ ____
ROOT
ATOM      1  C   UNL     1       8.463  32.240  33.238  0.00  0.00    +0.093 A 
ATOM      2  N   UNL     1       9.286  32.633  32.215  0.00  0.00    -0.211 N 
ATOM      3  C   UNL     1      10.406  31.847  32.274  0.00  0.00    +0.155 A 
ATOM      4  N   UNL     1      10.275  31.005  33.293  0.00  0.00    -0.234 NA
ATOM      5  C   UNL     1      11.431  32.038  31.327  0.00  0.00    +0.051 A 
ATOM      6  C   UNL     1      11.286  33.000  30.376  0.00  0.00    +0.049 A 
ATOM      7  C   UNL     1      10.122  33.790  30.343  0.00  0.00    +0.140 A 
ATOM      8  N   UNL     1       9.984  34.771  29.365  0.00  0.00    -0.325 N 
ATOM      9  H   UNL     1      10.687  34.907  28.712  0.00  0.00    +0.148 HD
ATOM     10  N   UNL     1       9.166  33.613  31.224  0.00  0.00    -0.150 NA
ATOM     11  C   UNL     1       9.111  31.216  33.897  0.00  0.00    +0.141 A 
ENDROOT
BRANCH   1  14
ATOM     12  C   UNL     1       4.732  32.662  33.531  0.00  0.00    +0.018 A 
ATOM     13  C   UNL     1       5.979  32.120  33.215  0.00  0.00    +0.021 A 
ATOM     14  C   UNL     1       7.139  32.805  33.571  0.00  0.00    +0.003 A 
ATOM     15  C   UNL     1       7.047  34.027  34.242  0.00  0.00    +0.010 A 
ATOM     16  C   UNL     1       5.811  34.558  34.553  0.00  0.00    +0.001 A 
ATOM     17  C   UNL     1       4.656  33.886  34.204  0.00  0.00    +0.011 A 
BRANCH  12  19
ATOM     18  C   UNL     1       3.489  30.440  33.115  0.00  0.00    +0.091 C 
ATOM     19  C   UNL     1       3.500  31.946  33.160  0.00  0.00    +0.160 C 
ATOM     20  O   UNL     1       2.495  32.569  32.891  0.00  0.00    -0.292 OA
ENDBRANCH  12  19
ENDBRANCH   1  14
BRANCH   8  21
ATOM     21  C   UNL     1       8.775  35.599  29.324  0.00  0.00    +0.076 C 
ATOM     22  C   UNL     1       9.040  36.929  30.036  0.00  0.00    +0.050 C 
ATOM     23  C   UNL     1       7.800  37.817  29.919  0.00  0.00    +0.161 C 
ATOM     24  O   UNL     1       7.483  38.014  28.539  0.00  0.00    -0.380 OA
ATOM     25  C   UNL     1       7.180  36.808  27.834  0.00  0.00    +0.161 C 
ATOM     26  C   UNL     1       8.396  35.879  27.866  0.00  0.00    +0.050 C 
ENDBRANCH   8  21
TORSDOF 3
ENDMDL
