MODEL 1
REMARK VINA RESULT:      -9.4      0.000      0.000
REMARK  Name = 3Q4U_LDN.pdb
REMARK  3 active torsions:
REMARK  status: ('A' for Active; 'I' for Inactive)
REMARK    1  A    between atoms: _18  and  _19
REMARK    2  A    between atoms: _20  and  _30
REMARK    3  A    between atoms: _21  and  _22
REMARK                            x       y       z     vdW  Elec       q    Type
REMARK                         _______ _______ _______ _____ _____    ______ ____
ROOT
ATOM      1  C   UNL     1      18.069  24.249  18.264  0.00  0.00    +0.057 A 
ATOM      2  C   UNL     1      17.083  24.071  19.217  0.00  0.00    +0.165 A 
ATOM      3  N   UNL     1      17.473  22.934  19.984  0.00  0.00    -0.211 N 
ATOM      4  N   UNL     1      18.538  22.493  19.526  0.00  0.00    -0.162 NA
ATOM      5  C   UNL     1      16.694  22.501  21.029  0.00  0.00    +0.104 A 
ATOM      6  C   UNL     1      15.512  23.165  21.310  0.00  0.00    +0.038 A 
ATOM      7  C   UNL     1      15.175  24.298  20.561  0.00  0.00    +0.102 A 
ATOM      8  N   UNL     1      15.925  24.718  19.495  0.00  0.00    -0.225 NA
ATOM      9  C   UNL     1      18.924  23.266  18.483  0.00  0.00    +0.124 A 
ENDROOT
BRANCH   1  14
ATOM     10  C   UNL     1      16.429  25.016  13.358  0.00  0.00    +0.002 A 
ATOM     11  C   UNL     1      17.134  26.141  13.747  0.00  0.00    +0.019 A 
ATOM     12  C   UNL     1      17.701  26.250  15.014  0.00  0.00    +0.081 A 
ATOM     13  C   UNL     1      17.559  25.181  15.929  0.00  0.00    +0.018 A 
ATOM     14  C   UNL     1      18.148  25.268  17.225  0.00  0.00    +0.008 A 
ATOM     15  C   UNL     1      18.766  26.469  17.530  0.00  0.00    +0.021 A 
ATOM     16  C   UNL     1      18.892  27.499  16.577  0.00  0.00    +0.099 A 
ATOM     17  C   UNL     1      16.871  24.052  15.504  0.00  0.00    +0.001 A 
ATOM     18  N   UNL     1      18.339  27.375  15.367  0.00  0.00    -0.244 NA
ATOM     19  C   UNL     1      16.288  23.952  14.242  0.00  0.00    +0.000 A 
ENDBRANCH   1  14
BRANCH   6  20
ATOM     20  C   UNL     1      14.765  22.735  22.424  0.00  0.00    +0.003 A 
ATOM     21  C   UNL     1      15.259  22.843  23.734  0.00  0.00    +0.001 A 
ATOM     22  C   UNL     1      14.434  22.455  24.805  0.00  0.00    +0.015 A 
ATOM     23  C   UNL     1      13.163  21.961  24.601  0.00  0.00    +0.048 A 
ATOM     24  C   UNL     1      12.681  21.861  23.310  0.00  0.00    +0.015 A 
ATOM     25  C   UNL     1      13.470  22.280  22.240  0.00  0.00    +0.001 A 
BRANCH  23  26
ATOM     26  N   UNL     1      12.277  21.583  25.662  0.00  0.00    -0.305 N 
ATOM     27  C   UNL     1      12.299  22.300  26.945  0.00  0.00    +0.110 C 
ATOM     28  C   UNL     1      11.162  21.890  27.922  0.00  0.00    +0.110 C 
ATOM     29  N   UNL     1      10.960  20.423  28.006  0.00  0.00    -0.214 NA
ATOM     30  C   UNL     1      11.743  19.675  26.996  0.00  0.00    +0.110 C 
ATOM     31  C   UNL     1      11.571  20.298  25.619  0.00  0.00    +0.110 C 
ENDBRANCH  23  26
ENDBRANCH   6  20
TORSDOF 3
ENDMDL
MODEL 2
REMARK VINA RESULT:      -9.1      7.538      8.891
REMARK  Name = 3Q4U_LDN.pdb
REMARK  3 active torsions:
REMARK  status: ('A' for Active; 'I' for Inactive)
REMARK    1  A    between atoms: _18  and  _19
REMARK    2  A    between atoms: _20  and  _30
REMARK    3  A    between atoms: _21  and  _22
REMARK                            x       y       z     vdW  Elec       q    Type
REMARK                         _______ _______ _______ _____ _____    ______ ____
ROOT
ATOM      1  C   UNL     1       6.766  23.943  18.980  0.00  0.00    +0.057 A 
ATOM      2  C   UNL     1       7.676  23.082  19.566  0.00  0.00    +0.165 A 
ATOM      3  N   UNL     1       7.419  23.128  20.968  0.00  0.00    -0.211 N 
ATOM      4  N   UNL     1       6.493  23.928  21.176  0.00  0.00    -0.162 NA
ATOM      5  C   UNL     1       8.161  22.365  21.835  0.00  0.00    +0.104 A 
ATOM      6  C   UNL     1       9.179  21.572  21.335  0.00  0.00    +0.038 A 
ATOM      7  C   UNL     1       9.384  21.523  19.951  0.00  0.00    +0.102 A 
ATOM      8  N   UNL     1       8.674  22.305  19.080  0.00  0.00    -0.225 NA
ATOM      9  C   UNL     1       6.076  24.439  19.992  0.00  0.00    +0.124 A 
ENDROOT
BRANCH   1  14
ATOM     10  C   UNL     1       5.434  21.564  14.518  0.00  0.00    +0.002 A 
ATOM     11  C   UNL     1       5.698  22.890  14.226  0.00  0.00    +0.019 A 
ATOM     12  C   UNL     1       6.078  23.797  15.211  0.00  0.00    +0.081 A 
ATOM     13  C   UNL     1       6.204  23.353  16.548  0.00  0.00    +0.018 A 
ATOM     14  C   UNL     1       6.608  24.265  17.567  0.00  0.00    +0.008 A 
ATOM     15  C   UNL     1       6.774  25.581  17.172  0.00  0.00    +0.021 A 
ATOM     16  C   UNL     1       6.648  25.970  15.823  0.00  0.00    +0.099 A 
ATOM     17  C   UNL     1       5.961  22.012  16.810  0.00  0.00    +0.001 A 
ATOM     18  N   UNL     1       6.282  25.084  14.893  0.00  0.00    -0.244 NA
ATOM     19  C   UNL     1       5.562  21.109  15.825  0.00  0.00    +0.000 A 
ENDBRANCH   1  14
BRANCH   6  20
ATOM     20  C   UNL     1       9.884  20.755  22.242  0.00  0.00    +0.003 A 
ATOM     21  C   UNL     1      11.058  21.193  22.874  0.00  0.00    +0.001 A 
ATOM     22  C   UNL     1      11.675  20.353  23.818  0.00  0.00    +0.015 A 
ATOM     23  C   UNL     1      11.165  19.110  24.127  0.00  0.00    +0.048 A 
ATOM     24  C   UNL     1      10.006  18.687  23.504  0.00  0.00    +0.015 A 
ATOM     25  C   UNL     1       9.359  19.524  22.597  0.00  0.00    +0.001 A 
BRANCH  23  26
ATOM     26  N   UNL     1      11.741  18.234  25.103  0.00  0.00    -0.305 N 
ATOM     27  C   UNL     1      10.887  17.369  25.930  0.00  0.00    +0.110 C 
ATOM     28  C   UNL     1      11.669  16.355  26.808  0.00  0.00    +0.110 C 
ATOM     29  N   UNL     1      12.839  16.953  27.496  0.00  0.00    -0.214 NA
ATOM     30  C   UNL     1      13.129  18.332  27.044  0.00  0.00    +0.110 C 
ATOM     31  C   UNL     1      13.135  18.406  25.525  0.00  0.00    +0.110 C 
ENDBRANCH  23  26
ENDBRANCH   6  20
TORSDOF 3
ENDMDL
MODEL 3
REMARK VINA RESULT:      -9.1      8.431     10.287
REMARK  Name = 3Q4U_LDN.pdb
REMARK  3 active torsions:
REMARK  status: ('A' for Active; 'I' for Inactive)
REMARK    1  A    between atoms: _18  and  _19
REMARK    2  A    between atoms: _20  and  _30
REMARK    3  A    between atoms: _21  and  _22
REMARK                            x       y       z     vdW  Elec       q    Type
REMARK                         _______ _______ _______ _____ _____    ______ ____
ROOT
ATOM      1  C   UNL     1       5.974  21.681  15.519  0.00  0.00    +0.057 A 
ATOM      2  C   UNL     1       7.105  22.202  16.121  0.00  0.00    +0.165 A 
ATOM      3  N   UNL     1       7.163  21.625  17.424  0.00  0.00    -0.211 N 
ATOM      4  N   UNL     1       6.182  20.881  17.572  0.00  0.00    -0.162 NA
ATOM      5  C   UNL     1       8.191  21.940  18.277  0.00  0.00    +0.104 A 
ATOM      6  C   UNL     1       9.155  22.845  17.868  0.00  0.00    +0.038 A 
ATOM      7  C   UNL     1       9.089  23.368  16.571  0.00  0.00    +0.102 A 
ATOM      8  N   UNL     1       8.050  23.088  15.724  0.00  0.00    -0.225 NA
ATOM      9  C   UNL     1       5.442  20.894  16.436  0.00  0.00    +0.124 A 
ENDROOT
BRANCH   1  14
ATOM     10  C   UNL     1       5.750  19.375  10.832  0.00  0.00    +0.002 A 
ATOM     11  C   UNL     1       5.107  20.596  10.732  0.00  0.00    +0.019 A 
ATOM     12  C   UNL     1       4.991  21.456  11.820  0.00  0.00    +0.081 A 
ATOM     13  C   UNL     1       5.549  21.077  13.063  0.00  0.00    +0.018 A 
ATOM     14  C   UNL     1       5.454  21.953  14.185  0.00  0.00    +0.008 A 
ATOM     15  C   UNL     1       4.726  23.113  13.987  0.00  0.00    +0.021 A 
ATOM     16  C   UNL     1       4.201  23.451  12.724  0.00  0.00    +0.099 A 
ATOM     17  C   UNL     1       6.213  19.859  13.130  0.00  0.00    +0.001 A 
ATOM     18  N   UNL     1       4.322  22.611  11.692  0.00  0.00    -0.244 NA
ATOM     19  C   UNL     1       6.312  18.991  12.043  0.00  0.00    +0.000 A 
ENDBRANCH   1  14
BRANCH   6  20
ATOM     20  C   UNL     1      10.229  23.104  18.743  0.00  0.00    +0.003 A 
ATOM     21  C   UNL     1      10.116  22.916  20.129  0.00  0.00    +0.001 A 
ATOM     22  C   UNL     1      11.247  23.129  20.938  0.00  0.00    +0.015 A 
ATOM     23  C   UNL     1      12.456  23.528  20.406  0.00  0.00    +0.048 A 
ATOM     24  C   UNL     1      12.561  23.707  19.040  0.00  0.00    +0.015 A 
ATOM     25  C   UNL     1      11.461  23.460  18.220  0.00  0.00    +0.001 A 
BRANCH  23  26
ATOM     26  N   UNL     1      13.640  23.727  21.186  0.00  0.00    -0.305 N 
ATOM     27  C   UNL     1      14.970  23.525  20.592  0.00  0.00    +0.110 C 
ATOM     28  C   UNL     1      16.148  23.952  21.510  0.00  0.00    +0.110 C 
ATOM     29  N   UNL     1      15.994  23.501  22.914  0.00  0.00    -0.214 NA
ATOM     30  C   UNL     1      14.662  22.915  23.187  0.00  0.00    +0.110 C 
ATOM     31  C   UNL     1      13.562  23.818  22.648  0.00  0.00    +0.110 C 
ENDBRANCH  23  26
ENDBRANCH   6  20
TORSDOF 3
ENDMDL
MODEL 4
REMARK VINA RESULT:      -8.9      7.573      9.763
REMARK  Name = 3Q4U_LDN.pdb
REMARK  3 active torsions:
REMARK  status: ('A' for Active; 'I' for Inactive)
REMARK    1  A    between atoms: _18  and  _19
REMARK    2  A    between atoms: _20  and  _30
REMARK    3  A    between atoms: _21  and  _22
REMARK                            x       y       z     vdW  Elec       q    Type
REMARK                         _______ _______ _______ _____ _____    ______ ____
ROOT
ATOM      1  C   UNL     1       7.332  24.993  16.685  0.00  0.00    +0.057 A 
ATOM      2  C   UNL     1       8.683  24.701  16.735  0.00  0.00    +0.165 A 
ATOM      3  N   UNL     1       8.952  24.299  18.077  0.00  0.00    -0.211 N 
ATOM      4  N   UNL     1       7.900  24.367  18.730  0.00  0.00    -0.162 NA
ATOM      5  C   UNL     1      10.222  23.931  18.450  0.00  0.00    +0.104 A 
ATOM      6  C   UNL     1      11.241  23.982  17.515  0.00  0.00    +0.038 A 
ATOM      7  C   UNL     1      10.938  24.348  16.199  0.00  0.00    +0.102 A 
ATOM      8  N   UNL     1       9.684  24.750  15.824  0.00  0.00    -0.225 NA
ATOM      9  C   UNL     1       6.900  24.785  17.916  0.00  0.00    +0.124 A 
ENDROOT
BRANCH   1  14
ATOM     10  C   UNL     1       4.303  23.003  12.915  0.00  0.00    +0.002 A 
ATOM     11  C   UNL     1       4.336  24.376  12.748  0.00  0.00    +0.019 A 
ATOM     12  C   UNL     1       5.061  25.202  13.603  0.00  0.00    +0.081 A 
ATOM     13  C   UNL     1       5.788  24.625  14.670  0.00  0.00    +0.018 A 
ATOM     14  C   UNL     1       6.549  25.454  15.546  0.00  0.00    +0.008 A 
ATOM     15  C   UNL     1       6.450  26.818  15.327  0.00  0.00    +0.021 A 
ATOM     16  C   UNL     1       5.721  27.342  14.241  0.00  0.00    +0.099 A 
ATOM     17  C   UNL     1       5.761  23.243  14.799  0.00  0.00    +0.001 A 
ATOM     18  N   UNL     1       5.031  26.532  13.432  0.00  0.00    -0.244 NA
ATOM     19  C   UNL     1       5.020  22.418  13.953  0.00  0.00    +0.000 A 
ENDBRANCH   1  14
BRANCH   6  20
ATOM     20  C   UNL     1      12.520  23.543  17.911  0.00  0.00    +0.003 A 
ATOM     21  C   UNL     1      13.652  23.735  17.104  0.00  0.00    +0.001 A 
ATOM     22  C   UNL     1      14.909  23.331  17.590  0.00  0.00    +0.015 A 
ATOM     23  C   UNL     1      15.054  22.741  18.828  0.00  0.00    +0.048 A 
ATOM     24  C   UNL     1      13.936  22.558  19.619  0.00  0.00    +0.015 A 
ATOM     25  C   UNL     1      12.689  22.991  19.170  0.00  0.00    +0.001 A 
BRANCH  23  26
ATOM     26  N   UNL     1      16.316  22.342  19.375  0.00  0.00    -0.305 N 
ATOM     27  C   UNL     1      16.409  21.839  20.753  0.00  0.00    +0.110 C 
ATOM     28  C   UNL     1      17.808  21.282  21.134  0.00  0.00    +0.110 C 
ATOM     29  N   UNL     1      18.927  22.147  20.687  0.00  0.00    -0.214 NA
ATOM     30  C   UNL     1      18.485  23.248  19.801  0.00  0.00    +0.110 C 
ATOM     31  C   UNL     1      17.568  22.719  18.709  0.00  0.00    +0.110 C 
ENDBRANCH  23  26
ENDBRANCH   6  20
TORSDOF 3
ENDMDL
MODEL 5
REMARK VINA RESULT:      -8.8      8.253     10.086
REMARK  Name = 3Q4U_LDN.pdb
REMARK  3 active torsions:
REMARK  status: ('A' for Active; 'I' for Inactive)
REMARK    1  A    between atoms: _18  and  _19
REMARK    2  A    between atoms: _20  and  _30
REMARK    3  A    between atoms: _21  and  _22
REMARK                            x       y       z     vdW  Elec       q    Type
REMARK                         _______ _______ _______ _____ _____    ______ ____
ROOT
ATOM      1  C   UNL     1       6.634  26.476  15.007  0.00  0.00    +0.057 A 
ATOM      2  C   UNL     1       7.827  26.011  15.529  0.00  0.00    +0.165 A 
ATOM      3  N   UNL     1       7.981  26.649  16.795  0.00  0.00    -0.211 N 
ATOM      4  N   UNL     1       7.015  27.405  16.979  0.00  0.00    -0.162 NA
ATOM      5  C   UNL     1       9.079  26.385  17.577  0.00  0.00    +0.104 A 
ATOM      6  C   UNL     1      10.046  25.513  17.109  0.00  0.00    +0.038 A 
ATOM      7  C   UNL     1       9.850  24.877  15.878  0.00  0.00    +0.102 A 
ATOM      8  N   UNL     1       8.777  25.159  15.074  0.00  0.00    -0.225 NA
ATOM      9  C   UNL     1       6.181  27.323  15.914  0.00  0.00    +0.124 A 
ENDROOT
BRANCH   1  14
ATOM     10  C   UNL     1       4.402  22.366  12.668  0.00  0.00    +0.002 A 
ATOM     11  C   UNL     1       4.365  23.427  11.782  0.00  0.00    +0.019 A 
ATOM     12  C   UNL     1       4.881  24.677  12.111  0.00  0.00    +0.081 A 
ATOM     13  C   UNL     1       5.466  24.871  13.384  0.00  0.00    +0.018 A 
ATOM     14  C   UNL     1       6.015  26.140  13.731  0.00  0.00    +0.008 A 
ATOM     15  C   UNL     1       5.855  27.146  12.794  0.00  0.00    +0.021 A 
ATOM     16  C   UNL     1       5.275  26.899  11.534  0.00  0.00    +0.099 A 
ATOM     17  C   UNL     1       5.517  23.783  14.244  0.00  0.00    +0.001 A 
ATOM     18  N   UNL     1       4.785  25.691  11.238  0.00  0.00    -0.244 NA
ATOM     19  C   UNL     1       4.982  22.536  13.920  0.00  0.00    +0.000 A 
ENDBRANCH   1  14
BRANCH   6  20
ATOM     20  C   UNL     1      11.131  25.215  17.958  0.00  0.00    +0.003 A 
ATOM     21  C   UNL     1      12.294  26.000  17.975  0.00  0.00    +0.001 A 
ATOM     22  C   UNL     1      13.312  25.687  18.895  0.00  0.00    +0.015 A 
ATOM     23  C   UNL     1      13.201  24.624  19.766  0.00  0.00    +0.048 A 
ATOM     24  C   UNL     1      12.051  23.858  19.747  0.00  0.00    +0.015 A 
ATOM     25  C   UNL     1      11.016  24.180  18.871  0.00  0.00    +0.001 A 
BRANCH  23  26
ATOM     26  N   UNL     1      14.197  24.286  20.739  0.00  0.00    -0.305 N 
ATOM     27  C   UNL     1      15.558  23.922  20.320  0.00  0.00    +0.110 C 
ATOM     28  C   UNL     1      16.563  23.759  21.494  0.00  0.00    +0.110 C 
ATOM     29  N   UNL     1      16.012  22.991  22.637  0.00  0.00    -0.214 NA
ATOM     30  C   UNL     1      14.564  22.716  22.501  0.00  0.00    +0.110 C 
ATOM     31  C   UNL     1      13.813  23.984  22.122  0.00  0.00    +0.110 C 
ENDBRANCH  23  26
ENDBRANCH   6  20
TORSDOF 3
ENDMDL
MODEL 6
REMARK VINA RESULT:      -8.7      4.537      8.936
REMARK  Name = 3Q4U_LDN.pdb
REMARK  3 active torsions:
REMARK  status: ('A' for Active; 'I' for Inactive)
REMARK    1  A    between atoms: _18  and  _19
REMARK    2  A    between atoms: _20  and  _30
REMARK    3  A    between atoms: _21  and  _22
REMARK                            x       y       z     vdW  Elec       q    Type
REMARK                         _______ _______ _______ _____ _____    ______ ____
ROOT
ATOM      1  C   UNL     1      12.128  21.946  24.726  0.00  0.00    +0.057 A 
ATOM      2  C   UNL     1      11.647  20.665  24.928  0.00  0.00    +0.165 A 
ATOM      3  N   UNL     1      11.679  20.448  26.338  0.00  0.00    -0.211 N 
ATOM      4  N   UNL     1      12.138  21.463  26.885  0.00  0.00    -0.162 NA
ATOM      5  C   UNL     1      11.250  19.255  26.866  0.00  0.00    +0.104 A 
ATOM      6  C   UNL     1      10.813  18.257  26.013  0.00  0.00    +0.038 A 
ATOM      7  C   UNL     1      10.762  18.513  24.638  0.00  0.00    +0.102 A 
ATOM      8  N   UNL     1      11.220  19.684  24.096  0.00  0.00    -0.225 NA
ATOM      9  C   UNL     1      12.420  22.388  25.936  0.00  0.00    +0.124 A 
ENDROOT
BRANCH   1  14
ATOM     10  C   UNL     1      16.006  23.897  21.811  0.00  0.00    +0.002 A 
ATOM     11  C   UNL     1      14.817  24.140  21.147  0.00  0.00    +0.019 A 
ATOM     12  C   UNL     1      13.591  23.735  21.667  0.00  0.00    +0.081 A 
ATOM     13  C   UNL     1      13.555  23.061  22.910  0.00  0.00    +0.018 A 
ATOM     14  C   UNL     1      12.305  22.654  23.464  0.00  0.00    +0.008 A 
ATOM     15  C   UNL     1      11.190  22.885  22.678  0.00  0.00    +0.021 A 
ATOM     16  C   UNL     1      11.278  23.572  21.451  0.00  0.00    +0.099 A 
ATOM     17  C   UNL     1      14.759  22.855  23.569  0.00  0.00    +0.001 A 
ATOM     18  N   UNL     1      12.465  23.951  20.970  0.00  0.00    -0.244 NA
ATOM     19  C   UNL     1      15.988  23.244  23.038  0.00  0.00    +0.000 A 
ENDBRANCH   1  14
BRANCH   6  20
ATOM     20  C   UNL     1      10.324  17.067  26.588  0.00  0.00    +0.003 A 
ATOM     21  C   UNL     1      11.181  16.112  27.155  0.00  0.00    +0.001 A 
ATOM     22  C   UNL     1      10.622  14.978  27.772  0.00  0.00    +0.015 A 
ATOM     23  C   UNL     1       9.259  14.776  27.820  0.00  0.00    +0.048 A 
ATOM     24  C   UNL     1       8.420  15.722  27.263  0.00  0.00    +0.015 A 
ATOM     25  C   UNL     1       8.956  16.872  26.685  0.00  0.00    +0.001 A 
BRANCH  23  26
ATOM     26  N   UNL     1       8.644  13.653  28.463  0.00  0.00    -0.305 N 
ATOM     27  C   UNL     1       7.213  13.375  28.275  0.00  0.00    +0.110 C 
ATOM     28  C   UNL     1       6.741  12.028  28.890  0.00  0.00    +0.110 C 
ATOM     29  N   UNL     1       7.272  11.785  30.253  0.00  0.00    -0.214 NA
ATOM     30  C   UNL     1       8.294  12.777  30.657  0.00  0.00    +0.110 C 
ATOM     31  C   UNL     1       9.329  12.955  29.556  0.00  0.00    +0.110 C 
ENDBRANCH  23  26
ENDBRANCH   6  20
TORSDOF 3
ENDMDL
MODEL 7
REMARK VINA RESULT:      -8.7      7.832      9.402
REMARK  Name = 3Q4U_LDN.pdb
REMARK  3 active torsions:
REMARK  status: ('A' for Active; 'I' for Inactive)
REMARK    1  A    between atoms: _18  and  _19
REMARK    2  A    between atoms: _20  and  _30
REMARK    3  A    between atoms: _21  and  _22
REMARK                            x       y       z     vdW  Elec       q    Type
REMARK                         _______ _______ _______ _____ _____    ______ ____
ROOT
ATOM      1  C   UNL     1       6.246  21.699  15.933  0.00  0.00    +0.057 A 
ATOM      2  C   UNL     1       7.273  21.921  16.833  0.00  0.00    +0.165 A 
ATOM      3  N   UNL     1       6.942  21.177  18.003  0.00  0.00    -0.211 N 
ATOM      4  N   UNL     1       5.854  20.610  17.819  0.00  0.00    -0.162 NA
ATOM      5  C   UNL     1       7.781  21.184  19.091  0.00  0.00    +0.104 A 
ATOM      6  C   UNL     1       8.936  21.946  19.047  0.00  0.00    +0.038 A 
ATOM      7  C   UNL     1       9.249  22.638  17.871  0.00  0.00    +0.102 A 
ATOM      8  N   UNL     1       8.404  22.666  16.795  0.00  0.00    -0.225 NA
ATOM      9  C   UNL     1       5.406  20.907  16.575  0.00  0.00    +0.124 A 
ENDROOT
BRANCH   1  14
ATOM     10  C   UNL     1       6.280  19.998  10.988  0.00  0.00    +0.002 A 
ATOM     11  C   UNL     1       6.047  21.361  10.964  0.00  0.00    +0.019 A 
ATOM     12  C   UNL     1       5.975  22.115  12.132  0.00  0.00    +0.081 A 
ATOM     13  C   UNL     1       6.149  21.474  13.380  0.00  0.00    +0.018 A 
ATOM     14  C   UNL     1       6.095  22.234  14.586  0.00  0.00    +0.008 A 
ATOM     15  C   UNL     1       5.783  23.575  14.443  0.00  0.00    +0.021 A 
ATOM     16  C   UNL     1       5.631  24.168  13.175  0.00  0.00    +0.099 A 
ATOM     17  C   UNL     1       6.410  20.110  13.377  0.00  0.00    +0.001 A 
ATOM     18  N   UNL     1       5.703  23.427  12.065  0.00  0.00    -0.244 NA
ATOM     19  C   UNL     1       6.463  19.353  12.207  0.00  0.00    +0.000 A 
ENDBRANCH   1  14
BRANCH   6  20
ATOM     20  C   UNL     1       9.806  21.887  20.154  0.00  0.00    +0.003 A 
ATOM     21  C   UNL     1      10.273  23.047  20.791  0.00  0.00    +0.001 A 
ATOM     22  C   UNL     1      11.085  22.915  21.932  0.00  0.00    +0.015 A 
ATOM     23  C   UNL     1      11.444  21.680  22.430  0.00  0.00    +0.048 A 
ATOM     24  C   UNL     1      10.977  20.542  21.800  0.00  0.00    +0.015 A 
ATOM     25  C   UNL     1      10.137  20.655  20.693  0.00  0.00    +0.001 A 
BRANCH  23  26
ATOM     26  N   UNL     1      12.243  21.498  23.605  0.00  0.00    -0.305 N 
ATOM     27  C   UNL     1      11.960  20.398  24.538  0.00  0.00    +0.110 C 
ATOM     28  C   UNL     1      13.021  20.229  25.661  0.00  0.00    +0.110 C 
ATOM     29  N   UNL     1      13.430  21.512  26.281  0.00  0.00    -0.214 NA
ATOM     30  C   UNL     1      12.895  22.693  25.567  0.00  0.00    +0.110 C 
ATOM     31  C   UNL     1      13.135  22.565  24.070  0.00  0.00    +0.110 C 
ENDBRANCH  23  26
ENDBRANCH   6  20
TORSDOF 3
ENDMDL
MODEL 8
REMARK VINA RESULT:      -8.7      8.037      9.373
REMARK  Name = 3Q4U_LDN.pdb
REMARK  3 active torsions:
REMARK  status: ('A' for Active; 'I' for Inactive)
REMARK    1  A    between atoms: _18  and  _19
REMARK    2  A    between atoms: _20  and  _30
REMARK    3  A    between atoms: _21  and  _22
REMARK                            x       y       z     vdW  Elec       q    Type
REMARK                         _______ _______ _______ _____ _____    ______ ____
ROOT
ATOM      1  C   UNL     1       6.523  25.356  16.920  0.00  0.00    +0.057 A 
ATOM      2  C   UNL     1       7.310  24.339  17.428  0.00  0.00    +0.165 A 
ATOM      3  N   UNL     1       7.036  24.287  18.827  0.00  0.00    -0.211 N 
ATOM      4  N   UNL     1       6.212  25.172  19.103  0.00  0.00    -0.162 NA
ATOM      5  C   UNL     1       7.664  23.360  19.623  0.00  0.00    +0.104 A 
ATOM      6  C   UNL     1       8.585  22.497  19.055  0.00  0.00    +0.038 A 
ATOM      7  C   UNL     1       8.806  22.551  17.675  0.00  0.00    +0.102 A 
ATOM      8  N   UNL     1       8.213  23.492  16.877  0.00  0.00    -0.225 NA
ATOM      9  C   UNL     1       5.882  25.838  17.970  0.00  0.00    +0.124 A 
ENDROOT
BRANCH   1  14
ATOM     10  C   UNL     1       4.691  23.705  12.308  0.00  0.00    +0.002 A 
ATOM     11  C   UNL     1       5.230  24.965  12.121  0.00  0.00    +0.019 A 
ATOM     12  C   UNL     1       5.800  25.683  13.169  0.00  0.00    +0.081 A 
ATOM     13  C   UNL     1       5.835  25.110  14.461  0.00  0.00    +0.018 A 
ATOM     14  C   UNL     1       6.430  25.824  15.543  0.00  0.00    +0.008 A 
ATOM     15  C   UNL     1       6.870  27.104  15.254  0.00  0.00    +0.021 A 
ATOM     16  C   UNL     1       6.823  27.625  13.945  0.00  0.00    +0.099 A 
ATOM     17  C   UNL     1       5.313  23.833  14.617  0.00  0.00    +0.001 A 
ATOM     18  N   UNL     1       6.271  26.920  12.953  0.00  0.00    -0.244 NA
ATOM     19  C   UNL     1       4.726  23.122  13.570  0.00  0.00    +0.000 A 
ENDBRANCH   1  14
BRANCH   6  20
ATOM     20  C   UNL     1       9.169  21.519  19.886  0.00  0.00    +0.003 A 
ATOM     21  C   UNL     1      10.441  21.692  20.452  0.00  0.00    +0.001 A 
ATOM     22  C   UNL     1      10.936  20.707  21.325  0.00  0.00    +0.015 A 
ATOM     23  C   UNL     1      10.211  19.573  21.626  0.00  0.00    +0.048 A 
ATOM     24  C   UNL     1       8.957  19.411  21.069  0.00  0.00    +0.015 A 
ATOM     25  C   UNL     1       8.434  20.398  20.235  0.00  0.00    +0.001 A 
BRANCH  23  26
ATOM     26  N   UNL     1      10.662  18.559  22.532  0.00  0.00    -0.305 N 
ATOM     27  C   UNL     1      10.281  17.154  22.331  0.00  0.00    +0.110 C 
ATOM     28  C   UNL     1      10.992  16.158  23.289  0.00  0.00    +0.110 C 
ATOM     29  N   UNL     1      11.028  16.622  24.697  0.00  0.00    -0.214 NA
ATOM     30  C   UNL     1      10.560  18.017  24.856  0.00  0.00    +0.110 C 
ATOM     31  C   UNL     1      11.229  18.924  23.834  0.00  0.00    +0.110 C 
ENDBRANCH  23  26
ENDBRANCH   6  20
TORSDOF 3
ENDMDL
MODEL 9
REMARK VINA RESULT:      -8.6      4.796      8.991
REMARK  Name = 3Q4U_LDN.pdb
REMARK  3 active torsions:
REMARK  status: ('A' for Active; 'I' for Inactive)
REMARK    1  A    between atoms: _18  and  _19
REMARK    2  A    between atoms: _20  and  _30
REMARK    3  A    between atoms: _21  and  _22
REMARK                            x       y       z     vdW  Elec       q    Type
REMARK                         _______ _______ _______ _____ _____    ______ ____
ROOT
ATOM      1  C   UNL     1      12.795  21.941  25.274  0.00  0.00    +0.057 A 
ATOM      2  C   UNL     1      12.292  20.661  25.425  0.00  0.00    +0.165 A 
ATOM      3  N   UNL     1      11.727  20.609  26.733  0.00  0.00    -0.211 N 
ATOM      4  N   UNL     1      11.896  21.708  27.283  0.00  0.00    -0.162 NA
ATOM      5  C   UNL     1      11.132  19.457  27.186  0.00  0.00    +0.104 A 
ATOM      6  C   UNL     1      11.112  18.341  26.368  0.00  0.00    +0.038 A 
ATOM      7  C   UNL     1      11.644  18.435  25.077  0.00  0.00    +0.102 A 
ATOM      8  N   UNL     1      12.271  19.565  24.628  0.00  0.00    -0.225 NA
ATOM      9  C   UNL     1      12.541  22.536  26.425  0.00  0.00    +0.124 A 
ENDROOT
BRANCH   1  14
ATOM     10  C   UNL     1      11.644  23.783  20.517  0.00  0.00    +0.002 A 
ATOM     11  C   UNL     1      13.011  23.899  20.695  0.00  0.00    +0.019 A 
ATOM     12  C   UNL     1      13.636  23.495  21.872  0.00  0.00    +0.081 A 
ATOM     13  C   UNL     1      12.855  22.946  22.915  0.00  0.00    +0.018 A 
ATOM     14  C   UNL     1      13.480  22.512  24.122  0.00  0.00    +0.008 A 
ATOM     15  C   UNL     1      14.841  22.745  24.216  0.00  0.00    +0.021 A 
ATOM     16  C   UNL     1      15.576  23.284  23.142  0.00  0.00    +0.099 A 
ATOM     17  C   UNL     1      11.489  22.814  22.701  0.00  0.00    +0.001 A 
ATOM     18  N   UNL     1      14.958  23.666  22.020  0.00  0.00    -0.244 NA
ATOM     19  C   UNL     1      10.863  23.236  21.529  0.00  0.00    +0.000 A 
ENDBRANCH   1  14
BRANCH   6  20
ATOM     20  C   UNL     1      10.442  17.193  26.837  0.00  0.00    +0.003 A 
ATOM     21  C   UNL     1       9.043  17.084  26.797  0.00  0.00    +0.001 A 
ATOM     22  C   UNL     1       8.443  15.885  27.220  0.00  0.00    +0.015 A 
ATOM     23  C   UNL     1       9.190  14.823  27.684  0.00  0.00    +0.048 A 
ATOM     24  C   UNL     1      10.567  14.935  27.717  0.00  0.00    +0.015 A 
ATOM     25  C   UNL     1      11.180  16.101  27.263  0.00  0.00    +0.001 A 
BRANCH  23  26
ATOM     26  N   UNL     1       8.624  13.573  28.096  0.00  0.00    -0.305 N 
ATOM     27  C   UNL     1       9.138  12.305  27.557  0.00  0.00    +0.110 C 
ATOM     28  C   UNL     1       8.545  11.039  28.234  0.00  0.00    +0.110 C 
ATOM     29  N   UNL     1       7.076  11.109  28.427  0.00  0.00    -0.214 NA
ATOM     30  C   UNL     1       6.518  12.446  28.120  0.00  0.00    +0.110 C 
ATOM     31  C   UNL     1       7.337  13.534  28.798  0.00  0.00    +0.110 C 
ENDBRANCH  23  26
ENDBRANCH   6  20
TORSDOF 3
ENDMDL
