MODEL 1
REMARK VINA RESULT:      -6.7      0.000      0.000
REMARK  Name = 6I1S_E26.pdb
REMARK  8 active torsions:
REMARK  status: ('A' for Active; 'I' for Inactive)
REMARK    1  A    between atoms: _1  and  _2
REMARK    2  A    between atoms: _2  and  _3
REMARK    3  A    between atoms: _3  and  _4
REMARK    4  A    between atoms: _10  and  _28
REMARK    5  A    between atoms: _11  and  _27
REMARK    6  A    between atoms: _15  and  _16
REMARK    7  A    between atoms: _17  and  _18
REMARK    8  A    between atoms: _22  and  _24
REMARK                            x       y       z     vdW  Elec       q    Type
REMARK                         _______ _______ _______ _____ _____    ______ ____
ROOT
ATOM      1  C   UNL     1      11.425  16.857  27.238  0.00  0.00    +0.031 A 
ATOM      2  C   UNL     1      11.983  15.627  27.566  0.00  0.00    +0.069 A 
ATOM      3  C   UNL     1      11.370  14.471  27.105  0.00  0.00    +0.133 A 
ATOM      4  C   UNL     1      10.202  14.527  26.332  0.00  0.00    +0.107 A 
ATOM      5  C   UNL     1       9.598  13.194  25.883  0.00  0.00    +0.344 C 
ATOM      6  O   UNL     1      10.122  12.152  26.125  0.00  0.00    -0.245 OA
ATOM      7  O   UNL     1       8.370  13.223  25.210  0.00  0.00    -0.457 OA
ATOM      8  C   UNL     1       7.808  11.978  24.822  0.00  0.00    +0.180 C 
ATOM      9  C   UNL     1       7.001  11.351  25.925  0.00  0.00    +0.052 C 
ATOM     10  C   UNL     1       6.955  12.324  23.591  0.00  0.00    +0.049 C 
ATOM     11  C   UNL     1       6.271  11.083  23.028  0.00  0.00    +0.015 C 
ATOM     12  C   UNL     1       7.860  12.961  22.526  0.00  0.00    -0.017 C 
ATOM     13  C   UNL     1       7.525  14.006  21.765  0.00  0.00    +0.045 C 
ATOM     14  C   UNL     1       6.221  14.813  21.860  0.00  0.00    +0.187 C 
ATOM     15  O   UNL     1       5.240  14.448  22.427  0.00  0.00    -0.290 OA
ATOM     16  C   UNL     1       6.318  16.255  21.294  0.00  0.00    +0.213 C 
ATOM     17  C   UNL     1       7.390  16.989  22.127  0.00  0.00    +0.154 C 
ATOM     18  C   UNL     1       6.970  17.301  23.570  0.00  0.00    +0.061 C 
ATOM     19  C   UNL     1       8.196  17.113  24.480  0.00  0.00    -0.024 C 
ATOM     20  C   UNL     1       8.392  15.969  25.142  0.00  0.00    +0.005 C 
ATOM     21  C   UNL     1       9.646  15.784  26.008  0.00  0.00    -0.006 A 
ATOM     22  C   UNL     1      10.274  16.926  26.463  0.00  0.00    +0.032 A 
ENDROOT
BRANCH   1  23
ATOM     23  N   UNL     1      12.040  18.084  27.695  0.00  0.00    -0.344 N 
ATOM     24  H   UNL     1      11.568  18.683  28.111  0.00  0.00    +0.146 HD
BRANCH  23  26
ATOM     25  C   UNL     1      13.628  18.615  25.961  0.00  0.00    +0.024 C 
ATOM     26  C   UNL     1      13.455  18.302  27.452  0.00  0.00    +0.098 C 
ENDBRANCH  23  26
ENDBRANCH   1  23
BRANCH   3  27
ATOM     27  O   UNL     1      11.912  13.224  27.426  0.00  0.00    -0.506 OA
ATOM     28  H   UNL     1      12.468  12.993  26.826  0.00  0.00    +0.292 HD
ENDBRANCH   3  27
BRANCH  16  29
ATOM     29  O   UNL     1       5.092  16.876  21.354  0.00  0.00    -0.381 OA
ATOM     30  H   UNL     1       5.179  17.697  21.151  0.00  0.00    +0.210 HD
ENDBRANCH  16  29
BRANCH  17  31
ATOM     31  O   UNL     1       7.728  18.198  21.510  0.00  0.00    -0.388 OA
ATOM     32  H   UNL     1       7.837  18.069  20.677  0.00  0.00    +0.210 HD
ENDBRANCH  17  31
TORSDOF 5
ENDMDL
MODEL 2
REMARK VINA RESULT:      -6.5      3.272      7.096
REMARK  Name = 6I1S_E26.pdb
REMARK  8 active torsions:
REMARK  status: ('A' for Active; 'I' for Inactive)
REMARK    1  A    between atoms: _1  and  _2
REMARK    2  A    between atoms: _2  and  _3
REMARK    3  A    between atoms: _3  and  _4
REMARK    4  A    between atoms: _10  and  _28
REMARK    5  A    between atoms: _11  and  _27
REMARK    6  A    between atoms: _15  and  _16
REMARK    7  A    between atoms: _17  and  _18
REMARK    8  A    between atoms: _22  and  _24
REMARK                            x       y       z     vdW  Elec       q    Type
REMARK                         _______ _______ _______ _____ _____    ______ ____
ROOT
ATOM      1  C   UNL     1       8.166  17.900  23.848  0.00  0.00    +0.031 A 
ATOM      2  C   UNL     1       9.351  18.517  23.464  0.00  0.00    +0.069 A 
ATOM      3  C   UNL     1      10.493  18.299  24.221  0.00  0.00    +0.133 A 
ATOM      4  C   UNL     1      10.462  17.484  25.362  0.00  0.00    +0.107 A 
ATOM      5  C   UNL     1      11.774  17.318  26.134  0.00  0.00    +0.344 C 
ATOM      6  O   UNL     1      12.793  17.807  25.759  0.00  0.00    -0.245 OA
ATOM      7  O   UNL     1      11.740  16.605  27.340  0.00  0.00    -0.457 OA
ATOM      8  C   UNL     1      12.957  16.480  28.059  0.00  0.00    +0.180 C 
ATOM      9  C   UNL     1      13.211  17.661  28.956  0.00  0.00    +0.052 C 
ATOM     10  C   UNL     1      12.791  15.169  28.844  0.00  0.00    +0.049 C 
ATOM     11  C   UNL     1      14.029  14.867  29.683  0.00  0.00    +0.015 C 
ATOM     12  C   UNL     1      12.532  14.027  27.850  0.00  0.00    -0.017 C 
ATOM     13  C   UNL     1      11.652  13.040  28.033  0.00  0.00    +0.045 C 
ATOM     14  C   UNL     1      10.683  12.900  29.217  0.00  0.00    +0.187 C 
ATOM     15  O   UNL     1      10.782  13.492  30.244  0.00  0.00    -0.290 OA
ATOM     16  C   UNL     1       9.431  12.032  28.920  0.00  0.00    +0.213 C 
ATOM     17  C   UNL     1       8.672  12.725  27.769  0.00  0.00    +0.154 C 
ATOM     18  C   UNL     1       7.991  14.045  28.160  0.00  0.00    +0.061 C 
ATOM     19  C   UNL     1       8.126  15.024  26.981  0.00  0.00    -0.024 C 
ATOM     20  C   UNL     1       9.106  15.930  26.948  0.00  0.00    +0.005 C 
ATOM     21  C   UNL     1       9.251  16.867  25.740  0.00  0.00    -0.006 A 
ATOM     22  C   UNL     1       8.126  17.083  24.970  0.00  0.00    +0.032 A 
ENDROOT
BRANCH   1  23
ATOM     23  N   UNL     1       6.957  18.099  23.078  0.00  0.00    -0.344 N 
ATOM     24  H   UNL     1       6.718  18.898  22.835  0.00  0.00    +0.146 HD
BRANCH  23  26
ATOM     25  C   UNL     1       6.816  16.268  21.517  0.00  0.00    +0.024 C 
ATOM     26  C   UNL     1       6.148  16.949  22.717  0.00  0.00    +0.098 C 
ENDBRANCH  23  26
ENDBRANCH   1  23
BRANCH   3  27
ATOM     27  O   UNL     1      11.695  18.911  23.856  0.00  0.00    -0.506 OA
ATOM     28  H   UNL     1      11.856  18.752  23.037  0.00  0.00    +0.292 HD
ENDBRANCH   3  27
BRANCH  16  29
ATOM     29  O   UNL     1       8.660  11.902  30.052  0.00  0.00    -0.381 OA
ATOM     30  H   UNL     1       7.966  11.446  29.873  0.00  0.00    +0.210 HD
ENDBRANCH  16  29
BRANCH  17  31
ATOM     31  O   UNL     1       7.687  11.870  27.264  0.00  0.00    -0.388 OA
ATOM     32  H   UNL     1       7.879  11.067  27.467  0.00  0.00    +0.210 HD
ENDBRANCH  17  31
TORSDOF 5
ENDMDL
MODEL 3
REMARK VINA RESULT:      -6.4      2.854      6.572
REMARK  Name = 6I1S_E26.pdb
REMARK  8 active torsions:
REMARK  status: ('A' for Active; 'I' for Inactive)
REMARK    1  A    between atoms: _1  and  _2
REMARK    2  A    between atoms: _2  and  _3
REMARK    3  A    between atoms: _3  and  _4
REMARK    4  A    between atoms: _10  and  _28
REMARK    5  A    between atoms: _11  and  _27
REMARK    6  A    between atoms: _15  and  _16
REMARK    7  A    between atoms: _17  and  _18
REMARK    8  A    between atoms: _22  and  _24
REMARK                            x       y       z     vdW  Elec       q    Type
REMARK                         _______ _______ _______ _____ _____    ______ ____
ROOT
ATOM      1  C   UNL     1       7.616  16.980  20.081  0.00  0.00    +0.031 A 
ATOM      2  C   UNL     1       6.577  16.057  20.061  0.00  0.00    +0.069 A 
ATOM      3  C   UNL     1       6.564  15.045  21.010  0.00  0.00    +0.133 A 
ATOM      4  C   UNL     1       7.581  14.937  21.970  0.00  0.00    +0.107 A 
ATOM      5  C   UNL     1       7.479  13.777  22.964  0.00  0.00    +0.344 C 
ATOM      6  O   UNL     1       6.552  13.030  22.969  0.00  0.00    -0.245 OA
ATOM      7  O   UNL     1       8.544  13.581  23.854  0.00  0.00    -0.457 OA
ATOM      8  C   UNL     1       8.449  12.488  24.755  0.00  0.00    +0.180 C 
ATOM      9  C   UNL     1       8.941  11.205  24.143  0.00  0.00    +0.052 C 
ATOM     10  C   UNL     1       9.293  12.927  25.962  0.00  0.00    +0.049 C 
ATOM     11  C   UNL     1       9.298  11.857  27.049  0.00  0.00    +0.015 C 
ATOM     12  C   UNL     1       8.720  14.241  26.513  0.00  0.00    -0.017 C 
ATOM     13  C   UNL     1       9.452  15.274  26.937  0.00  0.00    +0.045 C 
ATOM     14  C   UNL     1      10.984  15.381  26.884  0.00  0.00    +0.187 C 
ATOM     15  O   UNL     1      11.720  14.460  26.715  0.00  0.00    -0.290 OA
ATOM     16  C   UNL     1      11.526  16.835  26.898  0.00  0.00    +0.213 C 
ATOM     17  C   UNL     1      10.960  17.533  25.643  0.00  0.00    +0.154 C 
ATOM     18  C   UNL     1      11.558  17.041  24.318  0.00  0.00    +0.061 C 
ATOM     19  C   UNL     1      10.437  17.010  23.264  0.00  0.00    -0.024 C 
ATOM     20  C   UNL     1       9.778  15.880  22.996  0.00  0.00    +0.005 C 
ATOM     21  C   UNL     1       8.631  15.880  21.976  0.00  0.00    -0.006 A 
ATOM     22  C   UNL     1       8.624  16.888  21.033  0.00  0.00    +0.032 A 
ENDROOT
BRANCH   1  23
ATOM     23  N   UNL     1       7.659  18.052  19.111  0.00  0.00    -0.344 N 
ATOM     24  H   UNL     1       8.348  18.580  19.071  0.00  0.00    +0.146 HD
BRANCH  23  26
ATOM     25  C   UNL     1       6.913  17.592  16.866  0.00  0.00    +0.024 C 
ATOM     26  C   UNL     1       6.539  18.236  18.206  0.00  0.00    +0.098 C 
ENDBRANCH  23  26
ENDBRANCH   1  23
BRANCH   3  27
ATOM     27  O   UNL     1       5.530  14.105  21.007  0.00  0.00    -0.506 OA
ATOM     28  H   UNL     1       4.784  14.504  20.929  0.00  0.00    +0.292 HD
ENDBRANCH   3  27
BRANCH  16  29
ATOM     29  O   UNL     1      12.901  16.833  26.920  0.00  0.00    -0.381 OA
ATOM     30  H   UNL     1      13.198  16.677  26.139  0.00  0.00    +0.210 HD
ENDBRANCH  16  29
BRANCH  17  31
ATOM     31  O   UNL     1      11.177  18.912  25.725  0.00  0.00    -0.388 OA
ATOM     32  H   UNL     1      11.554  19.181  25.013  0.00  0.00    +0.210 HD
ENDBRANCH  17  31
TORSDOF 5
ENDMDL
MODEL 4
REMARK VINA RESULT:      -6.4      3.270      6.654
REMARK  Name = 6I1S_E26.pdb
REMARK  8 active torsions:
REMARK  status: ('A' for Active; 'I' for Inactive)
REMARK    1  A    between atoms: _1  and  _2
REMARK    2  A    between atoms: _2  and  _3
REMARK    3  A    between atoms: _3  and  _4
REMARK    4  A    between atoms: _10  and  _28
REMARK    5  A    between atoms: _11  and  _27
REMARK    6  A    between atoms: _15  and  _16
REMARK    7  A    between atoms: _17  and  _18
REMARK    8  A    between atoms: _22  and  _24
REMARK                            x       y       z     vdW  Elec       q    Type
REMARK                         _______ _______ _______ _____ _____    ______ ____
ROOT
ATOM      1  C   UNL     1       7.316  12.048  26.750  0.00  0.00    +0.031 A 
ATOM      2  C   UNL     1       7.649  11.707  28.055  0.00  0.00    +0.069 A 
ATOM      3  C   UNL     1       8.730  12.336  28.655  0.00  0.00    +0.133 A 
ATOM      4  C   UNL     1       9.488  13.293  27.964  0.00  0.00    +0.107 A 
ATOM      5  C   UNL     1      10.668  13.920  28.712  0.00  0.00    +0.344 C 
ATOM      6  O   UNL     1      10.904  13.658  29.849  0.00  0.00    -0.245 OA
ATOM      7  O   UNL     1      11.507  14.789  28.003  0.00  0.00    -0.457 OA
ATOM      8  C   UNL     1      12.612  15.345  28.701  0.00  0.00    +0.180 C 
ATOM      9  C   UNL     1      13.811  14.436  28.681  0.00  0.00    +0.052 C 
ATOM     10  C   UNL     1      12.871  16.679  27.983  0.00  0.00    +0.049 C 
ATOM     11  C   UNL     1      14.041  17.427  28.615  0.00  0.00    +0.015 C 
ATOM     12  C   UNL     1      11.596  17.532  28.051  0.00  0.00    -0.017 C 
ATOM     13  C   UNL     1      11.119  18.272  27.047  0.00  0.00    +0.045 C 
ATOM     14  C   UNL     1      11.697  18.351  25.626  0.00  0.00    +0.187 C 
ATOM     15  O   UNL     1      12.786  17.983  25.319  0.00  0.00    -0.290 OA
ATOM     16  C   UNL     1      10.679  18.801  24.545  0.00  0.00    +0.213 C 
ATOM     17  C   UNL     1       9.546  17.753  24.536  0.00  0.00    +0.154 C 
ATOM     18  C   UNL     1       9.948  16.386  23.966  0.00  0.00    +0.061 C 
ATOM     19  C   UNL     1       9.245  15.294  24.791  0.00  0.00    -0.024 C 
ATOM     20  C   UNL     1       9.873  14.681  25.798  0.00  0.00    +0.005 C 
ATOM     21  C   UNL     1       9.138  13.628  26.638  0.00  0.00    -0.006 A 
ATOM     22  C   UNL     1       8.053  13.001  26.059  0.00  0.00    +0.032 A 
ENDROOT
BRANCH   1  23
ATOM     23  N   UNL     1       6.192  11.417  26.094  0.00  0.00    -0.344 N 
ATOM     24  H   UNL     1       5.953  11.665  25.297  0.00  0.00    +0.146 HD
BRANCH  23  26
ATOM     25  C   UNL     1       3.997  10.792  26.871  0.00  0.00    +0.024 C 
ATOM     26  C   UNL     1       5.467  10.364  26.784  0.00  0.00    +0.098 C 
ENDBRANCH  23  26
ENDBRANCH   1  23
BRANCH   3  27
ATOM     27  O   UNL     1       9.086  12.006  29.965  0.00  0.00    -0.506 OA
ATOM     28  H   UNL     1       9.799  11.545  29.958  0.00  0.00    +0.292 HD
ENDBRANCH   3  27
BRANCH  16  29
ATOM     29  O   UNL     1      11.298  18.912  23.321  0.00  0.00    -0.381 OA
ATOM     30  H   UNL     1      12.101  19.167  23.431  0.00  0.00    +0.210 HD
ENDBRANCH  16  29
BRANCH  17  31
ATOM     31  O   UNL     1       8.464  18.227  23.788  0.00  0.00    -0.388 OA
ATOM     32  H   UNL     1       8.729  18.433  23.007  0.00  0.00    +0.210 HD
ENDBRANCH  17  31
TORSDOF 5
ENDMDL
MODEL 5
REMARK VINA RESULT:      -6.1      3.091      7.150
REMARK  Name = 6I1S_E26.pdb
REMARK  8 active torsions:
REMARK  status: ('A' for Active; 'I' for Inactive)
REMARK    1  A    between atoms: _1  and  _2
REMARK    2  A    between atoms: _2  and  _3
REMARK    3  A    between atoms: _3  and  _4
REMARK    4  A    between atoms: _10  and  _28
REMARK    5  A    between atoms: _11  and  _27
REMARK    6  A    between atoms: _15  and  _16
REMARK    7  A    between atoms: _17  and  _18
REMARK    8  A    between atoms: _22  and  _24
REMARK                            x       y       z     vdW  Elec       q    Type
REMARK                         _______ _______ _______ _____ _____    ______ ____
ROOT
ATOM      1  C   UNL     1       8.440  16.489  21.365  0.00  0.00    +0.031 A 
ATOM      2  C   UNL     1       9.345  17.538  21.260  0.00  0.00    +0.069 A 
ATOM      3  C   UNL     1      10.127  17.858  22.361  0.00  0.00    +0.133 A 
ATOM      4  C   UNL     1      10.007  17.151  23.566  0.00  0.00    +0.107 A 
ATOM      5  C   UNL     1      10.908  17.591  24.724  0.00  0.00    +0.344 C 
ATOM      6  O   UNL     1      11.718  18.455  24.599  0.00  0.00    -0.245 OA
ATOM      7  O   UNL     1      10.722  16.977  25.969  0.00  0.00    -0.457 OA
ATOM      8  C   UNL     1      11.546  17.412  27.041  0.00  0.00    +0.180 C 
ATOM      9  C   UNL     1      10.981  18.619  27.737  0.00  0.00    +0.052 C 
ATOM     10  C   UNL     1      11.631  16.185  27.963  0.00  0.00    +0.049 C 
ATOM     11  C   UNL     1      12.498  16.474  29.185  0.00  0.00    +0.015 C 
ATOM     12  C   UNL     1      12.212  15.007  27.167  0.00  0.00    -0.017 C 
ATOM     13  C   UNL     1      11.781  13.746  27.247  0.00  0.00    +0.045 C 
ATOM     14  C   UNL     1      10.588  13.248  28.077  0.00  0.00    +0.187 C 
ATOM     15  O   UNL     1      10.073  13.863  28.957  0.00  0.00    -0.290 OA
ATOM     16  C   UNL     1       9.968  11.918  27.573  0.00  0.00    +0.213 C 
ATOM     17  C   UNL     1       9.468  12.176  26.136  0.00  0.00    +0.154 C 
ATOM     18  C   UNL     1       8.238  13.091  26.045  0.00  0.00    +0.061 C 
ATOM     19  C   UNL     1       8.396  13.989  24.806  0.00  0.00    -0.024 C 
ATOM     20  C   UNL     1       8.889  15.226  24.912  0.00  0.00    +0.005 C 
ATOM     21  C   UNL     1       9.082  16.089  23.657  0.00  0.00    -0.006 A 
ATOM     22  C   UNL     1       8.320  15.775  22.550  0.00  0.00    +0.032 A 
ENDROOT
BRANCH   1  23
ATOM     23  N   UNL     1       7.613  16.123  20.236  0.00  0.00    -0.344 N 
ATOM     24  H   UNL     1       7.340  15.304  20.139  0.00  0.00    +0.146 HD
BRANCH  23  26
ATOM     25  C   UNL     1       7.180  16.469  17.890  0.00  0.00    +0.024 C 
ATOM     26  C   UNL     1       7.243  17.139  19.267  0.00  0.00    +0.098 C 
ENDBRANCH  23  26
ENDBRANCH   1  23
BRANCH   3  27
ATOM     27  O   UNL     1      11.041  18.912  22.279  0.00  0.00    -0.506 OA
ATOM     28  H   UNL     1      11.318  18.985  21.479  0.00  0.00    +0.292 HD
ENDBRANCH   3  27
BRANCH  16  29
ATOM     29  O   UNL     1       8.957  11.512  28.413  0.00  0.00    -0.381 OA
ATOM     30  H   UNL     1       8.860  12.082  29.037  0.00  0.00    +0.210 HD
ENDBRANCH  16  29
BRANCH  17  31
ATOM     31  O   UNL     1       9.145  10.964  25.518  0.00  0.00    -0.388 OA
ATOM     32  H   UNL     1       9.839  10.642  25.147  0.00  0.00    +0.210 HD
ENDBRANCH  17  31
TORSDOF 5
ENDMDL
MODEL 6
REMARK VINA RESULT:      -5.9      2.347      5.230
REMARK  Name = 6I1S_E26.pdb
REMARK  8 active torsions:
REMARK  status: ('A' for Active; 'I' for Inactive)
REMARK    1  A    between atoms: _1  and  _2
REMARK    2  A    between atoms: _2  and  _3
REMARK    3  A    between atoms: _3  and  _4
REMARK    4  A    between atoms: _10  and  _28
REMARK    5  A    between atoms: _11  and  _27
REMARK    6  A    between atoms: _15  and  _16
REMARK    7  A    between atoms: _17  and  _18
REMARK    8  A    between atoms: _22  and  _24
REMARK                            x       y       z     vdW  Elec       q    Type
REMARK                         _______ _______ _______ _____ _____    ______ ____
ROOT
ATOM      1  C   UNL     1      11.053  16.929  24.087  0.00  0.00    +0.031 A 
ATOM      2  C   UNL     1      10.727  18.001  23.264  0.00  0.00    +0.069 A 
ATOM      3  C   UNL     1       9.774  17.815  22.273  0.00  0.00    +0.133 A 
ATOM      4  C   UNL     1       9.153  16.571  22.087  0.00  0.00    +0.107 A 
ATOM      5  C   UNL     1       8.123  16.469  20.958  0.00  0.00    +0.344 C 
ATOM      6  O   UNL     1       7.814  17.412  20.300  0.00  0.00    -0.245 OA
ATOM      7  O   UNL     1       7.579  15.208  20.679  0.00  0.00    -0.457 OA
ATOM      8  C   UNL     1       6.644  15.122  19.614  0.00  0.00    +0.180 C 
ATOM      9  C   UNL     1       7.318  14.942  18.281  0.00  0.00    +0.052 C 
ATOM     10  C   UNL     1       5.760  13.924  19.993  0.00  0.00    +0.049 C 
ATOM     11  C   UNL     1       4.677  13.685  18.945  0.00  0.00    +0.015 C 
ATOM     12  C   UNL     1       5.121  14.195  21.364  0.00  0.00    -0.017 C 
ATOM     13  C   UNL     1       4.976  13.287  22.331  0.00  0.00    +0.045 C 
ATOM     14  C   UNL     1       5.483  11.837  22.295  0.00  0.00    +0.187 C 
ATOM     15  O   UNL     1       5.821  11.264  21.308  0.00  0.00    -0.290 OA
ATOM     16  C   UNL     1       5.691  11.196  23.693  0.00  0.00    +0.213 C 
ATOM     17  C   UNL     1       6.753  12.049  24.419  0.00  0.00    +0.154 C 
ATOM     18  C   UNL     1       8.173  11.915  23.853  0.00  0.00    +0.061 C 
ATOM     19  C   UNL     1       8.847  13.297  23.908  0.00  0.00    -0.024 C 
ATOM     20  C   UNL     1       8.861  14.098  22.840  0.00  0.00    +0.005 C 
ATOM     21  C   UNL     1       9.497  15.492  22.929  0.00  0.00    -0.006 A 
ATOM     22  C   UNL     1      10.438  15.695  23.918  0.00  0.00    +0.032 A 
ENDROOT
BRANCH   1  23
ATOM     23  N   UNL     1      12.038  17.087  25.135  0.00  0.00    -0.344 N 
ATOM     24  H   UNL     1      12.838  17.367  24.947  0.00  0.00    +0.146 HD
BRANCH  23  26
ATOM     25  C   UNL     1      10.667  17.829  26.973  0.00  0.00    +0.024 C 
ATOM     26  C   UNL     1      11.674  16.772  26.505  0.00  0.00    +0.098 C 
ENDBRANCH  23  26
ENDBRANCH   1  23
BRANCH   3  27
ATOM     27  O   UNL     1       9.431  18.877  21.432  0.00  0.00    -0.506 OA
ATOM     28  H   UNL     1       9.739  19.602  21.752  0.00  0.00    +0.292 HD
ENDBRANCH   3  27
BRANCH  16  29
ATOM     29  O   UNL     1       6.076   9.882  23.564  0.00  0.00    -0.381 OA
ATOM     30  H   UNL     1       5.641   9.519  22.931  0.00  0.00    +0.210 HD
ENDBRANCH  16  29
BRANCH  17  31
ATOM     31  O   UNL     1       6.797  11.703  25.774  0.00  0.00    -0.388 OA
ATOM     32  H   UNL     1       6.592  12.380  26.245  0.00  0.00    +0.210 HD
ENDBRANCH  17  31
TORSDOF 5
ENDMDL
MODEL 7
REMARK VINA RESULT:      -5.8      3.193      6.738
REMARK  Name = 6I1S_E26.pdb
REMARK  8 active torsions:
REMARK  status: ('A' for Active; 'I' for Inactive)
REMARK    1  A    between atoms: _1  and  _2
REMARK    2  A    between atoms: _2  and  _3
REMARK    3  A    between atoms: _3  and  _4
REMARK    4  A    between atoms: _10  and  _28
REMARK    5  A    between atoms: _11  and  _27
REMARK    6  A    between atoms: _15  and  _16
REMARK    7  A    between atoms: _17  and  _18
REMARK    8  A    between atoms: _22  and  _24
REMARK                            x       y       z     vdW  Elec       q    Type
REMARK                         _______ _______ _______ _____ _____    ______ ____
ROOT
ATOM      1  C   UNL     1       4.856  12.889  20.852  0.00  0.00    +0.031 A 
ATOM      2  C   UNL     1       4.588  11.829  21.710  0.00  0.00    +0.069 A 
ATOM      3  C   UNL     1       5.394  11.653  22.825  0.00  0.00    +0.133 A 
ATOM      4  C   UNL     1       6.470  12.514  23.086  0.00  0.00    +0.107 A 
ATOM      5  C   UNL     1       7.305  12.226  24.337  0.00  0.00    +0.344 C 
ATOM      6  O   UNL     1       7.027  11.348  25.092  0.00  0.00    -0.245 OA
ATOM      7  O   UNL     1       8.452  13.001  24.553  0.00  0.00    -0.457 OA
ATOM      8  C   UNL     1       9.231  12.707  25.703  0.00  0.00    +0.180 C 
ATOM      9  C   UNL     1      10.225  11.606  25.449  0.00  0.00    +0.052 C 
ATOM     10  C   UNL     1       9.908  14.045  26.043  0.00  0.00    +0.049 C 
ATOM     11  C   UNL     1      10.795  13.915  27.278  0.00  0.00    +0.015 C 
ATOM     12  C   UNL     1       8.820  15.103  26.280  0.00  0.00    -0.017 C 
ATOM     13  C   UNL     1       8.879  16.366  25.853  0.00  0.00    +0.045 C 
ATOM     14  C   UNL     1       9.990  16.978  24.986  0.00  0.00    +0.187 C 
ATOM     15  O   UNL     1      11.062  16.489  24.817  0.00  0.00    -0.290 OA
ATOM     16  C   UNL     1       9.558  18.234  24.183  0.00  0.00    +0.213 C 
ATOM     17  C   UNL     1       8.416  17.790  23.243  0.00  0.00    +0.154 C 
ATOM     18  C   UNL     1       8.860  16.879  22.090  0.00  0.00    +0.061 C 
ATOM     19  C   UNL     1       7.765  15.824  21.860  0.00  0.00    -0.024 C 
ATOM     20  C   UNL     1       7.856  14.609  22.407  0.00  0.00    +0.005 C 
ATOM     21  C   UNL     1       6.730  13.585  22.205  0.00  0.00    -0.006 A 
ATOM     22  C   UNL     1       5.911  13.755  21.106  0.00  0.00    +0.032 A 
ENDROOT
BRANCH   1  23
ATOM     23  N   UNL     1       4.032  13.108  19.682  0.00  0.00    -0.344 N 
ATOM     24  H   UNL     1       3.167  13.144  19.755  0.00  0.00    +0.146 HD
BRANCH  23  26
ATOM     25  C   UNL     1       5.124  11.880  17.918  0.00  0.00    +0.024 C 
ATOM     26  C   UNL     1       4.667  13.267  18.386  0.00  0.00    +0.098 C 
ENDBRANCH  23  26
ENDBRANCH   1  23
BRANCH   3  27
ATOM     27  O   UNL     1       5.146  10.592  23.699  0.00  0.00    -0.506 OA
ATOM     28  H   UNL     1       4.312  10.539  23.851  0.00  0.00    +0.292 HD
ENDBRANCH   3  27
BRANCH  16  29
ATOM     29  O   UNL     1      10.629  18.754  23.495  0.00  0.00    -0.381 OA
ATOM     30  H   UNL     1      10.628  18.455  22.699  0.00  0.00    +0.210 HD
ENDBRANCH  16  29
BRANCH  17  31
ATOM     31  O   UNL     1       7.793  18.912  22.687  0.00  0.00    -0.388 OA
ATOM     32  H   UNL     1       8.280  19.226  22.065  0.00  0.00    +0.210 HD
ENDBRANCH  17  31
TORSDOF 5
ENDMDL
MODEL 8
REMARK VINA RESULT:      -5.7      2.629      5.553
REMARK  Name = 6I1S_E26.pdb
REMARK  8 active torsions:
REMARK  status: ('A' for Active; 'I' for Inactive)
REMARK    1  A    between atoms: _1  and  _2
REMARK    2  A    between atoms: _2  and  _3
REMARK    3  A    between atoms: _3  and  _4
REMARK    4  A    between atoms: _10  and  _28
REMARK    5  A    between atoms: _11  and  _27
REMARK    6  A    between atoms: _15  and  _16
REMARK    7  A    between atoms: _17  and  _18
REMARK    8  A    between atoms: _22  and  _24
REMARK                            x       y       z     vdW  Elec       q    Type
REMARK                         _______ _______ _______ _____ _____    ______ ____
ROOT
ATOM      1  C   UNL     1       7.880  10.878  26.682  0.00  0.00    +0.031 A 
ATOM      2  C   UNL     1       8.544  11.535  27.711  0.00  0.00    +0.069 A 
ATOM      3  C   UNL     1       9.017  12.819  27.488  0.00  0.00    +0.133 A 
ATOM      4  C   UNL     1       8.845  13.451  26.248  0.00  0.00    +0.107 A 
ATOM      5  C   UNL     1       9.415  14.865  26.101  0.00  0.00    +0.344 C 
ATOM      6  O   UNL     1       9.931  15.434  27.011  0.00  0.00    -0.245 OA
ATOM      7  O   UNL     1       9.358  15.467  24.838  0.00  0.00    -0.457 OA
ATOM      8  C   UNL     1       9.912  16.768  24.709  0.00  0.00    +0.180 C 
ATOM      9  C   UNL     1      11.392  16.731  24.441  0.00  0.00    +0.052 C 
ATOM     10  C   UNL     1       9.119  17.396  23.551  0.00  0.00    +0.049 C 
ATOM     11  C   UNL     1       9.585  18.822  23.274  0.00  0.00    +0.015 C 
ATOM     12  C   UNL     1       7.626  17.386  23.911  0.00  0.00    -0.017 C 
ATOM     13  C   UNL     1       6.638  17.095  23.062  0.00  0.00    +0.045 C 
ATOM     14  C   UNL     1       6.802  16.642  21.603  0.00  0.00    +0.187 C 
ATOM     15  O   UNL     1       7.803  16.757  20.969  0.00  0.00    -0.290 OA
ATOM     16  C   UNL     1       5.594  15.849  21.039  0.00  0.00    +0.213 C 
ATOM     17  C   UNL     1       5.445  14.584  21.911  0.00  0.00    +0.154 C 
ATOM     18  C   UNL     1       6.557  13.544  21.718  0.00  0.00    +0.061 C 
ATOM     19  C   UNL     1       6.878  12.921  23.088  0.00  0.00    -0.024 C 
ATOM     20  C   UNL     1       7.895  13.374  23.827  0.00  0.00    +0.005 C 
ATOM     21  C   UNL     1       8.170  12.771  25.212  0.00  0.00    -0.006 A 
ATOM     22  C   UNL     1       7.694  11.497  25.453  0.00  0.00    +0.032 A 
ENDROOT
BRANCH   1  23
ATOM     23  N   UNL     1       7.367   9.540  26.880  0.00  0.00    -0.344 N 
ATOM     24  H   UNL     1       7.574   8.904  26.326  0.00  0.00    +0.146 HD
BRANCH  23  26
ATOM     25  C   UNL     1       5.164   9.974  27.758  0.00  0.00    +0.024 C 
ATOM     26  C   UNL     1       6.502   9.272  28.015  0.00  0.00    +0.098 C 
ENDBRANCH  23  26
ENDBRANCH   1  23
BRANCH   3  27
ATOM     27  O   UNL     1       9.691  13.497  28.507  0.00  0.00    -0.506 OA
ATOM     28  H   UNL     1       9.127  13.830  29.047  0.00  0.00    +0.292 HD
ENDBRANCH   3  27
BRANCH  16  29
ATOM     29  O   UNL     1       5.797  15.547  19.712  0.00  0.00    -0.381 OA
ATOM     30  H   UNL     1       5.680  14.715  19.588  0.00  0.00    +0.210 HD
ENDBRANCH  16  29
BRANCH  17  31
ATOM     31  O   UNL     1       4.223  13.960  21.642  0.00  0.00    -0.388 OA
ATOM     32  H   UNL     1       4.010  13.461  22.296  0.00  0.00    +0.210 HD
ENDBRANCH  17  31
TORSDOF 5
ENDMDL
MODEL 9
REMARK VINA RESULT:      -5.6      3.432      5.975
REMARK  Name = 6I1S_E26.pdb
REMARK  8 active torsions:
REMARK  status: ('A' for Active; 'I' for Inactive)
REMARK    1  A    between atoms: _1  and  _2
REMARK    2  A    between atoms: _2  and  _3
REMARK    3  A    between atoms: _3  and  _4
REMARK    4  A    between atoms: _10  and  _28
REMARK    5  A    between atoms: _11  and  _27
REMARK    6  A    between atoms: _15  and  _16
REMARK    7  A    between atoms: _17  and  _18
REMARK    8  A    between atoms: _22  and  _24
REMARK                            x       y       z     vdW  Elec       q    Type
REMARK                         _______ _______ _______ _____ _____    ______ ____
ROOT
ATOM      1  C   UNL     1       8.375  16.618  20.508  0.00  0.00    +0.031 A 
ATOM      2  C   UNL     1       9.517  17.019  21.193  0.00  0.00    +0.069 A 
ATOM      3  C   UNL     1       9.771  16.475  22.443  0.00  0.00    +0.133 A 
ATOM      4  C   UNL     1       8.895  15.546  23.023  0.00  0.00    +0.107 A 
ATOM      5  C   UNL     1       9.261  15.015  24.411  0.00  0.00    +0.344 C 
ATOM      6  O   UNL     1      10.272  15.325  24.958  0.00  0.00    -0.245 OA
ATOM      7  O   UNL     1       8.342  14.177  25.057  0.00  0.00    -0.457 OA
ATOM      8  C   UNL     1       8.682  13.712  26.354  0.00  0.00    +0.180 C 
ATOM      9  C   UNL     1       8.293  14.691  27.428  0.00  0.00    +0.052 C 
ATOM     10  C   UNL     1       7.933  12.375  26.476  0.00  0.00    +0.049 C 
ATOM     11  C   UNL     1       8.193  11.719  27.829  0.00  0.00    +0.015 C 
ATOM     12  C   UNL     1       8.389  11.447  25.340  0.00  0.00    -0.017 C 
ATOM     13  C   UNL     1       7.583  10.650  24.636  0.00  0.00    +0.045 C 
ATOM     14  C   UNL     1       6.055  10.564  24.767  0.00  0.00    +0.187 C 
ATOM     15  O   UNL     1       5.431  10.987  25.687  0.00  0.00    -0.290 OA
ATOM     16  C   UNL     1       5.334  10.019  23.505  0.00  0.00    +0.213 C 
ATOM     17  C   UNL     1       5.655  10.995  22.353  0.00  0.00    +0.154 C 
ATOM     18  C   UNL     1       4.976  12.367  22.474  0.00  0.00    +0.061 C 
ATOM     19  C   UNL     1       5.962  13.438  21.977  0.00  0.00    -0.024 C 
ATOM     20  C   UNL     1       6.727  14.118  22.835  0.00  0.00    +0.005 C 
ATOM     21  C   UNL     1       7.739  15.150  22.316  0.00  0.00    -0.006 A 
ATOM     22  C   UNL     1       7.505  15.691  21.067  0.00  0.00    +0.032 A 
ENDROOT
BRANCH   1  23
ATOM     23  N   UNL     1       8.081  17.159  19.199  0.00  0.00    -0.344 N 
ATOM     24  H   UNL     1       8.276  17.985  19.012  0.00  0.00    +0.146 HD
BRANCH  23  26
ATOM     25  C   UNL     1       6.992  17.205  17.049  0.00  0.00    +0.024 C 
ATOM     26  C   UNL     1       7.458  16.308  18.203  0.00  0.00    +0.098 C 
ENDBRANCH  23  26
ENDBRANCH   1  23
BRANCH   3  27
ATOM     27  O   UNL     1      10.911  16.865  23.151  0.00  0.00    -0.506 OA
ATOM     28  H   UNL     1      11.202  16.208  23.604  0.00  0.00    +0.292 HD
ENDBRANCH   3  27
BRANCH  16  29
ATOM     29  O   UNL     1       3.982   9.910  23.736  0.00  0.00    -0.381 OA
ATOM     30  H   UNL     1       3.649   9.334  23.208  0.00  0.00    +0.210 HD
ENDBRANCH  16  29
BRANCH  17  31
ATOM     31  O   UNL     1       5.271  10.434  21.131  0.00  0.00    -0.388 OA
ATOM     32  H   UNL     1       5.346   9.588  21.173  0.00  0.00    +0.210 HD
ENDBRANCH  17  31
TORSDOF 5
ENDMDL
