MODEL 1
REMARK VINA RESULT:      -7.9      0.000      0.000
REMARK  Name = 4C02_TAK.pdb
REMARK  3 active torsions:
REMARK  status: ('A' for Active; 'I' for Inactive)
REMARK    1  A    between atoms: _1  and  _7
REMARK    2  A    between atoms: _12  and  _13
REMARK    3  A    between atoms: _18  and  _19
REMARK                            x       y       z     vdW  Elec       q    Type
REMARK                         _______ _______ _______ _____ _____    ______ ____
ROOT
ATOM      1  C   UNL     1      15.265  22.782  21.953  0.00  0.00    +0.038 A 
ATOM      2  C   UNL     1      14.620  22.603  20.717  0.00  0.00    +0.102 A 
ATOM      3  N   UNL     1      15.297  22.640  19.548  0.00  0.00    -0.225 NA
ATOM      4  C   UNL     1      16.665  22.889  19.533  0.00  0.00    +0.165 A 
ATOM      5  C   UNL     1      17.599  22.972  18.466  0.00  0.00    +0.057 A 
ATOM      6  C   UNL     1      18.808  23.242  19.101  0.00  0.00    +0.124 A 
ATOM      7  N   UNL     1      18.631  23.311  20.449  0.00  0.00    -0.162 NA
ATOM      8  N   UNL     1      17.291  23.085  20.670  0.00  0.00    -0.211 N 
ATOM      9  C   UNL     1      16.638  23.024  21.900  0.00  0.00    +0.104 A 
ENDROOT
BRANCH   1  13
ATOM     10  C   UNL     1      13.158  22.601  25.696  0.00  0.00    +0.139 A 
ATOM     11  C   UNL     1      14.481  22.949  25.650  0.00  0.00    +0.037 A 
ATOM     12  C   UNL     1      15.179  23.006  24.433  0.00  0.00    +0.003 A 
ATOM     13  C   UNL     1      14.550  22.703  23.222  0.00  0.00    +0.003 A 
ATOM     14  C   UNL     1      13.195  22.379  23.261  0.00  0.00    +0.003 A 
ATOM     15  C   UNL     1      12.508  22.321  24.471  0.00  0.00    +0.037 A 
BRANCH  10  16
ATOM     16  O   UNL     1      12.502  22.556  26.981  0.00  0.00    -0.471 OA
ATOM     17  C   UNL     1      11.427  21.664  27.163  0.00  0.00    +0.252 C 
ENDBRANCH  10  16
ENDBRANCH   1  13
BRANCH   5  18
ATOM     18  C   UNL     1      17.429  22.843  17.084  0.00  0.00    +0.008 A 
ATOM     19  C   UNL     1      17.428  21.633  16.418  0.00  0.00    +0.021 A 
ATOM     20  C   UNL     1      17.241  21.594  15.043  0.00  0.00    +0.099 A 
ATOM     21  N   UNL     1      17.040  22.726  14.357  0.00  0.00    -0.242 NA
ATOM     22  C   UNL     1      17.014  23.918  14.955  0.00  0.00    +0.099 A 
ATOM     23  C   UNL     1      17.205  23.984  16.326  0.00  0.00    +0.021 A 
ENDBRANCH   5  18
TORSDOF 3
ENDMDL
MODEL 2
REMARK VINA RESULT:      -7.5      1.486      2.039
REMARK  Name = 4C02_TAK.pdb
REMARK  3 active torsions:
REMARK  status: ('A' for Active; 'I' for Inactive)
REMARK    1  A    between atoms: _1  and  _7
REMARK    2  A    between atoms: _12  and  _13
REMARK    3  A    between atoms: _18  and  _19
REMARK                            x       y       z     vdW  Elec       q    Type
REMARK                         _______ _______ _______ _____ _____    ______ ____
ROOT
ATOM      1  C   UNL     1      15.391  23.252  22.088  0.00  0.00    +0.038 A 
ATOM      2  C   UNL     1      15.105  24.308  21.205  0.00  0.00    +0.102 A 
ATOM      3  N   UNL     1      15.835  24.521  20.088  0.00  0.00    -0.225 NA
ATOM      4  C   UNL     1      16.923  23.708  19.792  0.00  0.00    +0.165 A 
ATOM      5  C   UNL     1      17.836  23.710  18.703  0.00  0.00    +0.057 A 
ATOM      6  C   UNL     1      18.692  22.648  18.983  0.00  0.00    +0.124 A 
ATOM      7  N   UNL     1      18.329  22.041  20.147  0.00  0.00    -0.162 NA
ATOM      8  N   UNL     1      17.231  22.729  20.611  0.00  0.00    -0.211 N 
ATOM      9  C   UNL     1      16.486  22.454  21.756  0.00  0.00    +0.104 A 
ENDROOT
BRANCH   1  13
ATOM     10  C   UNL     1      13.004  22.429  25.568  0.00  0.00    +0.139 A 
ATOM     11  C   UNL     1      12.443  22.450  24.319  0.00  0.00    +0.037 A 
ATOM     12  C   UNL     1      13.213  22.724  23.177  0.00  0.00    +0.003 A 
ATOM     13  C   UNL     1      14.583  22.990  23.273  0.00  0.00    +0.003 A 
ATOM     14  C   UNL     1      15.163  22.938  24.539  0.00  0.00    +0.003 A 
ATOM     15  C   UNL     1      14.395  22.669  25.669  0.00  0.00    +0.037 A 
BRANCH  10  16
ATOM     16  O   UNL     1      12.154  22.148  26.700  0.00  0.00    -0.471 OA
ATOM     17  C   UNL     1      11.545  20.882  26.793  0.00  0.00    +0.252 C 
ENDBRANCH  10  16
ENDBRANCH   1  13
BRANCH   5  18
ATOM     18  C   UNL     1      17.932  24.546  17.587  0.00  0.00    +0.008 A 
ATOM     19  C   UNL     1      17.181  24.387  16.438  0.00  0.00    +0.021 A 
ATOM     20  C   UNL     1      17.332  25.271  15.379  0.00  0.00    +0.099 A 
ATOM     21  N   UNL     1      18.191  26.294  15.471  0.00  0.00    -0.242 NA
ATOM     22  C   UNL     1      18.927  26.501  16.564  0.00  0.00    +0.099 A 
ATOM     23  C   UNL     1      18.799  25.628  17.633  0.00  0.00    +0.021 A 
ENDBRANCH   5  18
TORSDOF 3
ENDMDL
MODEL 3
REMARK VINA RESULT:      -7.5     10.693     11.864
REMARK  Name = 4C02_TAK.pdb
REMARK  3 active torsions:
REMARK  status: ('A' for Active; 'I' for Inactive)
REMARK    1  A    between atoms: _1  and  _7
REMARK    2  A    between atoms: _12  and  _13
REMARK    3  A    between atoms: _18  and  _19
REMARK                            x       y       z     vdW  Elec       q    Type
REMARK                         _______ _______ _______ _____ _____    ______ ____
ROOT
ATOM      1  C   UNL     1       6.219  22.465  15.917  0.00  0.00    +0.038 A 
ATOM      2  C   UNL     1       5.918  22.874  14.606  0.00  0.00    +0.102 A 
ATOM      3  N   UNL     1       5.934  22.009  13.568  0.00  0.00    -0.225 NA
ATOM      4  C   UNL     1       6.281  20.677  13.766  0.00  0.00    +0.165 A 
ATOM      5  C   UNL     1       6.368  19.579  12.867  0.00  0.00    +0.057 A 
ATOM      6  C   UNL     1       6.763  18.517  13.676  0.00  0.00    +0.124 A 
ATOM      7  N   UNL     1       6.901  18.929  14.967  0.00  0.00    -0.162 NA
ATOM      8  N   UNL     1       6.591  20.270  14.975  0.00  0.00    -0.211 N 
ATOM      9  C   UNL     1       6.557  21.121  16.078  0.00  0.00    +0.104 A 
ENDROOT
BRANCH   1  13
ATOM     10  C   UNL     1       6.011  25.184  19.240  0.00  0.00    +0.139 A 
ATOM     11  C   UNL     1       6.109  25.648  17.956  0.00  0.00    +0.037 A 
ATOM     12  C   UNL     1       6.183  24.768  16.865  0.00  0.00    +0.003 A 
ATOM     13  C   UNL     1       6.165  23.382  17.049  0.00  0.00    +0.003 A 
ATOM     14  C   UNL     1       6.034  22.906  18.352  0.00  0.00    +0.003 A 
ATOM     15  C   UNL     1       5.964  23.783  19.431  0.00  0.00    +0.037 A 
BRANCH  10  16
ATOM     16  O   UNL     1       5.945  26.143  20.317  0.00  0.00    -0.471 OA
ATOM     17  C   UNL     1       4.682  26.538  20.797  0.00  0.00    +0.252 C 
ENDBRANCH  10  16
ENDBRANCH   1  13
BRANCH   5  18
ATOM     18  C   UNL     1       6.143  19.500  11.490  0.00  0.00    +0.008 A 
ATOM     19  C   UNL     1       6.894  20.174  10.546  0.00  0.00    +0.021 A 
ATOM     20  C   UNL     1       6.609  20.030   9.196  0.00  0.00    +0.099 A 
ATOM     21  N   UNL     1       5.619  19.221   8.797  0.00  0.00    -0.242 NA
ATOM     22  C   UNL     1       4.876  18.535   9.667  0.00  0.00    +0.099 A 
ATOM     23  C   UNL     1       5.136  18.668  11.022  0.00  0.00    +0.021 A 
ENDBRANCH   5  18
TORSDOF 3
ENDMDL
MODEL 4
REMARK VINA RESULT:      -7.5     11.110     12.232
REMARK  Name = 4C02_TAK.pdb
REMARK  3 active torsions:
REMARK  status: ('A' for Active; 'I' for Inactive)
REMARK    1  A    between atoms: _1  and  _7
REMARK    2  A    between atoms: _12  and  _13
REMARK    3  A    between atoms: _18  and  _19
REMARK                            x       y       z     vdW  Elec       q    Type
REMARK                         _______ _______ _______ _____ _____    ______ ____
ROOT
ATOM      1  C   UNL     1       6.348  21.200  15.354  0.00  0.00    +0.038 A 
ATOM      2  C   UNL     1       6.022  21.407  14.002  0.00  0.00    +0.102 A 
ATOM      3  N   UNL     1       5.857  22.647  13.490  0.00  0.00    -0.225 NA
ATOM      4  C   UNL     1       5.976  23.767  14.306  0.00  0.00    +0.165 A 
ATOM      5  C   UNL     1       5.860  25.156  14.027  0.00  0.00    +0.057 A 
ATOM      6  C   UNL     1       6.090  25.763  15.259  0.00  0.00    +0.124 A 
ATOM      7  N   UNL     1       6.334  24.824  16.213  0.00  0.00    -0.162 NA
ATOM      8  N   UNL     1       6.255  23.605  15.579  0.00  0.00    -0.211 N 
ATOM      9  C   UNL     1       6.465  22.347  16.140  0.00  0.00    +0.104 A 
ENDROOT
BRANCH   1  13
ATOM     10  C   UNL     1       6.948  17.267  16.984  0.00  0.00    +0.139 A 
ATOM     11  C   UNL     1       6.582  18.314  17.788  0.00  0.00    +0.037 A 
ATOM     12  C   UNL     1       6.389  19.603  17.266  0.00  0.00    +0.003 A 
ATOM     13  C   UNL     1       6.569  19.868  15.904  0.00  0.00    +0.003 A 
ATOM     14  C   UNL     1       6.910  18.799  15.078  0.00  0.00    +0.003 A 
ATOM     15  C   UNL     1       7.103  17.523  15.601  0.00  0.00    +0.037 A 
BRANCH  10  16
ATOM     16  O   UNL     1       7.136  15.970  17.586  0.00  0.00    -0.471 OA
ATOM     17  C   UNL     1       7.580  15.898  18.921  0.00  0.00    +0.252 C 
ENDBRANCH  10  16
ENDBRANCH   1  13
BRANCH   5  18
ATOM     18  C   UNL     1       5.573  25.833  12.838  0.00  0.00    +0.008 A 
ATOM     19  C   UNL     1       5.271  25.203  11.646  0.00  0.00    +0.021 A 
ATOM     20  C   UNL     1       4.987  25.954  10.514  0.00  0.00    +0.099 A 
ATOM     21  N   UNL     1       4.985  27.292  10.574  0.00  0.00    -0.242 NA
ATOM     22  C   UNL     1       5.253  27.947  11.704  0.00  0.00    +0.099 A 
ATOM     23  C   UNL     1       5.546  27.220  12.847  0.00  0.00    +0.021 A 
ENDBRANCH   5  18
TORSDOF 3
ENDMDL
MODEL 5
REMARK VINA RESULT:      -7.4     10.918     13.676
REMARK  Name = 4C02_TAK.pdb
REMARK  3 active torsions:
REMARK  status: ('A' for Active; 'I' for Inactive)
REMARK    1  A    between atoms: _1  and  _7
REMARK    2  A    between atoms: _12  and  _13
REMARK    3  A    between atoms: _18  and  _19
REMARK                            x       y       z     vdW  Elec       q    Type
REMARK                         _______ _______ _______ _____ _____    ______ ____
ROOT
ATOM      1  C   UNL     1       5.915  22.102  14.420  0.00  0.00    +0.038 A 
ATOM      2  C   UNL     1       5.848  21.561  15.716  0.00  0.00    +0.102 A 
ATOM      3  N   UNL     1       5.939  22.338  16.818  0.00  0.00    -0.225 NA
ATOM      4  C   UNL     1       6.134  23.710  16.699  0.00  0.00    +0.165 A 
ATOM      5  C   UNL     1       6.254  24.736  17.675  0.00  0.00    +0.057 A 
ATOM      6  C   UNL     1       6.430  25.893  16.921  0.00  0.00    +0.124 A 
ATOM      7  N   UNL     1       6.412  25.602  15.592  0.00  0.00    -0.162 NA
ATOM      8  N   UNL     1       6.225  24.241  15.501  0.00  0.00    -0.211 N 
ATOM      9  C   UNL     1       6.104  23.482  14.339  0.00  0.00    +0.104 A 
ENDROOT
BRANCH   1  13
ATOM     10  C   UNL     1       5.477  19.634  10.926  0.00  0.00    +0.139 A 
ATOM     11  C   UNL     1       6.244  19.226  11.984  0.00  0.00    +0.037 A 
ATOM     12  C   UNL     1       6.398  20.028  13.127  0.00  0.00    +0.003 A 
ATOM     13  C   UNL     1       5.776  21.276  13.226  0.00  0.00    +0.003 A 
ATOM     14  C   UNL     1       4.968  21.681  12.165  0.00  0.00    +0.003 A 
ATOM     15  C   UNL     1       4.822  20.884  11.032  0.00  0.00    +0.037 A 
BRANCH  10  16
ATOM     16  O   UNL     1       5.366  18.765   9.780  0.00  0.00    -0.471 OA
ATOM     17  C   UNL     1       5.603  19.298   8.499  0.00  0.00    +0.252 C 
ENDBRANCH  10  16
ENDBRANCH   1  13
BRANCH   5  18
ATOM     18  C   UNL     1       6.229  24.682  19.071  0.00  0.00    +0.008 A 
ATOM     19  C   UNL     1       6.946  23.770  19.821  0.00  0.00    +0.021 A 
ATOM     20  C   UNL     1       6.872  23.794  21.206  0.00  0.00    +0.099 A 
ATOM     21  N   UNL     1       6.121  24.713  21.826  0.00  0.00    -0.242 NA
ATOM     22  C   UNL     1       5.424  25.627  21.149  0.00  0.00    +0.099 A 
ATOM     23  C   UNL     1       5.476  25.619  19.765  0.00  0.00    +0.021 A 
ENDBRANCH   5  18
TORSDOF 3
ENDMDL
MODEL 6
REMARK VINA RESULT:      -7.1     11.120     12.969
REMARK  Name = 4C02_TAK.pdb
REMARK  3 active torsions:
REMARK  status: ('A' for Active; 'I' for Inactive)
REMARK    1  A    between atoms: _1  and  _7
REMARK    2  A    between atoms: _12  and  _13
REMARK    3  A    between atoms: _18  and  _19
REMARK                            x       y       z     vdW  Elec       q    Type
REMARK                         _______ _______ _______ _____ _____    ______ ____
ROOT
ATOM      1  C   UNL     1       6.020  21.547  15.362  0.00  0.00    +0.038 A 
ATOM      2  C   UNL     1       5.918  21.215  16.724  0.00  0.00    +0.102 A 
ATOM      3  N   UNL     1       6.180  19.969  17.176  0.00  0.00    -0.225 NA
ATOM      4  C   UNL     1       6.535  18.958  16.289  0.00  0.00    +0.165 A 
ATOM      5  C   UNL     1       6.863  17.591  16.497  0.00  0.00    +0.057 A 
ATOM      6  C   UNL     1       7.127  17.114  15.215  0.00  0.00    +0.124 A 
ATOM      7  N   UNL     1       6.979  18.109  14.298  0.00  0.00    -0.162 NA
ATOM      8  N   UNL     1       6.614  19.231  15.008  0.00  0.00    -0.211 N 
ATOM      9  C   UNL     1       6.384  20.510  14.503  0.00  0.00    +0.104 A 
ENDROOT
BRANCH   1  13
ATOM     10  C   UNL     1       5.359  25.536  13.899  0.00  0.00    +0.139 A 
ATOM     11  C   UNL     1       6.150  25.309  14.993  0.00  0.00    +0.037 A 
ATOM     12  C   UNL     1       6.367  24.011  15.482  0.00  0.00    +0.003 A 
ATOM     13  C   UNL     1       5.779  22.899  14.871  0.00  0.00    +0.003 A 
ATOM     14  C   UNL     1       4.999  23.122  13.738  0.00  0.00    +0.003 A 
ATOM     15  C   UNL     1       4.784  24.411  13.260  0.00  0.00    +0.037 A 
BRANCH  10  16
ATOM     16  O   UNL     1       5.172  26.895  13.453  0.00  0.00    -0.471 OA
ATOM     17  C   UNL     1       5.472  27.947  14.339  0.00  0.00    +0.252 C 
ENDBRANCH  10  16
ENDBRANCH   1  13
BRANCH   5  18
ATOM     18  C   UNL     1       6.918  16.827  17.666  0.00  0.00    +0.008 A 
ATOM     19  C   UNL     1       7.299  17.327  18.896  0.00  0.00    +0.021 A 
ATOM     20  C   UNL     1       7.315  16.500  20.010  0.00  0.00    +0.099 A 
ATOM     21  N   UNL     1       6.943  15.218  19.905  0.00  0.00    -0.242 NA
ATOM     22  C   UNL     1       6.550  14.691  18.744  0.00  0.00    +0.099 A 
ATOM     23  C   UNL     1       6.532  15.495  17.615  0.00  0.00    +0.021 A 
ENDBRANCH   5  18
TORSDOF 3
ENDMDL
MODEL 7
REMARK VINA RESULT:      -7.0      5.194      8.275
REMARK  Name = 4C02_TAK.pdb
REMARK  3 active torsions:
REMARK  status: ('A' for Active; 'I' for Inactive)
REMARK    1  A    between atoms: _1  and  _7
REMARK    2  A    between atoms: _12  and  _13
REMARK    3  A    between atoms: _18  and  _19
REMARK                            x       y       z     vdW  Elec       q    Type
REMARK                         _______ _______ _______ _____ _____    ______ ____
ROOT
ATOM      1  C   UNL     1      11.116  18.506  26.251  0.00  0.00    +0.038 A 
ATOM      2  C   UNL     1      11.630  18.658  24.951  0.00  0.00    +0.102 A 
ATOM      3  N   UNL     1      12.248  19.793  24.557  0.00  0.00    -0.225 NA
ATOM      4  C   UNL     1      12.369  20.869  25.430  0.00  0.00    +0.165 A 
ATOM      5  C   UNL     1      12.967  22.149  25.275  0.00  0.00    +0.057 A 
ATOM      6  C   UNL     1      12.761  22.764  26.507  0.00  0.00    +0.124 A 
ATOM      7  N   UNL     1      12.097  21.926  27.351  0.00  0.00    -0.162 NA
ATOM      8  N   UNL     1      11.877  20.766  26.643  0.00  0.00    -0.211 N 
ATOM      9  C   UNL     1      11.261  19.604  27.100  0.00  0.00    +0.104 A 
ENDROOT
BRANCH   1  13
ATOM     10  C   UNL     1       9.265  14.873  27.616  0.00  0.00    +0.139 A 
ATOM     11  C   UNL     1      10.624  15.033  27.666  0.00  0.00    +0.037 A 
ATOM     12  C   UNL     1      11.238  16.213  27.218  0.00  0.00    +0.003 A 
ATOM     13  C   UNL     1      10.484  17.270  26.697  0.00  0.00    +0.003 A 
ATOM     14  C   UNL     1       9.099  17.124  26.673  0.00  0.00    +0.003 A 
ATOM     15  C   UNL     1       8.495  15.951  27.116  0.00  0.00    +0.037 A 
BRANCH  10  16
ATOM     16  O   UNL     1       8.699  13.633  28.087  0.00  0.00    -0.471 OA
ATOM     17  C   UNL     1       7.382  13.635  28.587  0.00  0.00    +0.252 C 
ENDBRANCH  10  16
ENDBRANCH   1  13
BRANCH   5  18
ATOM     18  C   UNL     1      13.613  22.735  24.183  0.00  0.00    +0.008 A 
ATOM     19  C   UNL     1      12.955  23.397  23.164  0.00  0.00    +0.021 A 
ATOM     20  C   UNL     1      13.676  23.961  22.120  0.00  0.00    +0.099 A 
ATOM     21  N   UNL     1      15.013  23.885  22.104  0.00  0.00    -0.242 NA
ATOM     22  C   UNL     1      15.696  23.272  23.073  0.00  0.00    +0.099 A 
ATOM     23  C   UNL     1      14.998  22.695  24.122  0.00  0.00    +0.021 A 
ENDBRANCH   5  18
TORSDOF 3
ENDMDL
MODEL 8
REMARK VINA RESULT:      -6.8     10.428     11.393
REMARK  Name = 4C02_TAK.pdb
REMARK  3 active torsions:
REMARK  status: ('A' for Active; 'I' for Inactive)
REMARK    1  A    between atoms: _1  and  _7
REMARK    2  A    between atoms: _12  and  _13
REMARK    3  A    between atoms: _18  and  _19
REMARK                            x       y       z     vdW  Elec       q    Type
REMARK                         _______ _______ _______ _____ _____    ______ ____
ROOT
ATOM      1  C   UNL     1       6.886  17.802  17.216  0.00  0.00    +0.038 A 
ATOM      2  C   UNL     1       7.066  17.203  15.957  0.00  0.00    +0.102 A 
ATOM      3  N   UNL     1       6.907  17.897  14.808  0.00  0.00    -0.225 NA
ATOM      4  C   UNL     1       6.527  19.234  14.840  0.00  0.00    +0.165 A 
ATOM      5  C   UNL     1       6.302  20.177  13.801  0.00  0.00    +0.057 A 
ATOM      6  C   UNL     1       5.949  21.341  14.478  0.00  0.00    +0.124 A 
ATOM      7  N   UNL     1       5.963  21.130  15.823  0.00  0.00    -0.162 NA
ATOM      8  N   UNL     1       6.327  19.815  16.000  0.00  0.00    -0.211 N 
ATOM      9  C   UNL     1       6.511  19.146  17.209  0.00  0.00    +0.104 A 
ENDROOT
BRANCH   1  13
ATOM     10  C   UNL     1       7.465  15.677  20.909  0.00  0.00    +0.139 A 
ATOM     11  C   UNL     1       7.813  16.996  20.794  0.00  0.00    +0.037 A 
ATOM     12  C   UNL     1       7.633  17.697  19.591  0.00  0.00    +0.003 A 
ATOM     13  C   UNL     1       7.096  17.072  18.461  0.00  0.00    +0.003 A 
ATOM     14  C   UNL     1       6.711  15.738  18.583  0.00  0.00    +0.003 A 
ATOM     15  C   UNL     1       6.894  15.047  19.777  0.00  0.00    +0.037 A 
BRANCH  10  16
ATOM     16  O   UNL     1       7.683  15.014  22.172  0.00  0.00    -0.471 OA
ATOM     17  C   UNL     1       7.832  15.797  23.332  0.00  0.00    +0.252 C 
ENDBRANCH  10  16
ENDBRANCH   1  13
BRANCH   5  18
ATOM     18  C   UNL     1       6.379  20.049  12.411  0.00  0.00    +0.008 A 
ATOM     19  C   UNL     1       5.572  19.207  11.669  0.00  0.00    +0.021 A 
ATOM     20  C   UNL     1       5.708  19.149  10.289  0.00  0.00    +0.099 A 
ATOM     21  N   UNL     1       6.607  19.922   9.666  0.00  0.00    -0.242 NA
ATOM     22  C   UNL     1       7.398  20.763  10.335  0.00  0.00    +0.099 A 
ATOM     23  C   UNL     1       7.286  20.834  11.714  0.00  0.00    +0.021 A 
ENDBRANCH   5  18
TORSDOF 3
ENDMDL
MODEL 9
REMARK VINA RESULT:      -6.7      7.477     10.759
REMARK  Name = 4C02_TAK.pdb
REMARK  3 active torsions:
REMARK  status: ('A' for Active; 'I' for Inactive)
REMARK    1  A    between atoms: _1  and  _7
REMARK    2  A    between atoms: _12  and  _13
REMARK    3  A    between atoms: _18  and  _19
REMARK                            x       y       z     vdW  Elec       q    Type
REMARK                         _______ _______ _______ _____ _____    ______ ____
ROOT
ATOM      1  C   UNL     1       8.642  17.299  24.205  0.00  0.00    +0.038 A 
ATOM      2  C   UNL     1       9.378  18.341  23.614  0.00  0.00    +0.102 A 
ATOM      3  N   UNL     1      10.331  19.016  24.294  0.00  0.00    -0.225 NA
ATOM      4  C   UNL     1      10.594  18.713  25.626  0.00  0.00    +0.165 A 
ATOM      5  C   UNL     1      11.528  19.252  26.551  0.00  0.00    +0.057 A 
ATOM      6  C   UNL     1      11.301  18.525  27.716  0.00  0.00    +0.124 A 
ATOM      7  N   UNL     1      10.312  17.610  27.519  0.00  0.00    -0.162 NA
ATOM      8  N   UNL     1       9.906  17.761  26.213  0.00  0.00    -0.211 N 
ATOM      9  C   UNL     1       8.937  17.019  25.539  0.00  0.00    +0.104 A 
ENDROOT
BRANCH   1  13
ATOM     10  C   UNL     1       5.678  15.031  22.070  0.00  0.00    +0.139 A 
ATOM     11  C   UNL     1       6.833  14.442  22.509  0.00  0.00    +0.037 A 
ATOM     12  C   UNL     1       7.810  15.175  23.202  0.00  0.00    +0.003 A 
ATOM     13  C   UNL     1       7.641  16.538  23.466  0.00  0.00    +0.003 A 
ATOM     14  C   UNL     1       6.453  17.135  23.048  0.00  0.00    +0.003 A 
ATOM     15  C   UNL     1       5.489  16.404  22.358  0.00  0.00    +0.037 A 
BRANCH  10  16
ATOM     16  O   UNL     1       4.719  14.222  21.358  0.00  0.00    -0.471 OA
ATOM     17  C   UNL     1       4.458  12.917  21.818  0.00  0.00    +0.252 C 
ENDBRANCH  10  16
ENDBRANCH   1  13
BRANCH   5  18
ATOM     18  C   UNL     1      12.472  20.274  26.413  0.00  0.00    +0.008 A 
ATOM     19  C   UNL     1      13.783  20.065  26.028  0.00  0.00    +0.021 A 
ATOM     20  C   UNL     1      14.652  21.140  25.905  0.00  0.00    +0.099 A 
ATOM     21  N   UNL     1      14.223  22.386  26.139  0.00  0.00    -0.242 NA
ATOM     22  C   UNL     1      12.963  22.642  26.497  0.00  0.00    +0.099 A 
ATOM     23  C   UNL     1      12.077  21.585  26.633  0.00  0.00    +0.021 A 
ENDBRANCH   5  18
TORSDOF 3
ENDMDL
