MODEL 1
REMARK VINA RESULT:      -6.5      0.000      0.000
REMARK  Name = 6GI6_EZB.pdb
REMARK  2 active torsions:
REMARK  status: ('A' for Active; 'I' for Inactive)
REMARK    1  A    between atoms: _1  and  _2
REMARK    2  A    between atoms: _3  and  _13
REMARK                            x       y       z     vdW  Elec       q    Type
REMARK                         _______ _______ _______ _____ _____    ______ ____
ROOT
ATOM      1  C   UNL     1       9.013  12.716  25.470  0.00  0.00    +0.045 C 
ATOM      2  C   UNL     1       8.760  14.202  25.656  0.00  0.00    -0.028 A 
ATOM      3  C   UNL     1       8.694  15.056  24.502  0.00  0.00    +0.068 A 
ATOM      4  C   UNL     1       8.874  14.538  23.086  0.00  0.00    +0.259 A 
ATOM      5  O   UNL     1       9.081  13.369  22.835  0.00  0.00    -0.267 OA
ATOM      6  N   UNL     1       8.800  15.421  22.006  0.00  0.00    -0.313 N 
ATOM      7  C   UNL     1       8.554  16.804  22.215  0.00  0.00    +0.199 A 
ATOM      8  N   UNL     1       8.383  17.303  23.548  0.00  0.00    -0.237 NA
ATOM      9  H   UNL     1       8.911  15.106  21.157  0.00  0.00    +0.170 HD
ATOM     10  C   UNL     1       8.462  16.395  24.676  0.00  0.00    +0.078 A 
ATOM     11  C   UNL     1       8.289  16.944  25.971  0.00  0.00    +0.029 A 
ATOM     12  C   UNL     1       8.353  16.120  27.081  0.00  0.00    +0.011 A 
ATOM     13  C   UNL     1       8.605  14.758  26.943  0.00  0.00    -0.013 A 
ENDROOT
BRANCH  13  14
ATOM     14  C   UNL     1       8.598  14.043  28.143  0.00  0.00    -0.008 A 
ATOM     15  C   UNL     1       9.752  13.699  28.914  0.00  0.00    +0.008 A 
ATOM     16  C   UNL     1      11.069  14.064  28.508  0.00  0.00    +0.012 A 
ATOM     17  C   UNL     1      12.151  13.692  29.302  0.00  0.00    +0.020 A 
ATOM     18  C   UNL     1      11.941  12.978  30.483  0.00  0.00    +0.111 A 
ATOM     19  N   UNL     1      10.691  12.644  30.849  0.00  0.00    -0.255 NA
ATOM     20  C   UNL     1       9.601  12.998  30.081  0.00  0.00    +0.072 A 
ATOM     21  C   UNL     1       8.311  12.616  30.542  0.00  0.00    +0.028 A 
ATOM     22  C   UNL     1       7.190  12.947  29.795  0.00  0.00    +0.003 A 
ATOM     23  C   UNL     1       7.338  13.663  28.607  0.00  0.00    +0.009 A 
ENDBRANCH  13  14
TORSDOF 1
ENDMDL
MODEL 2
REMARK VINA RESULT:      -6.3      2.808      4.289
REMARK  Name = 6GI6_EZB.pdb
REMARK  2 active torsions:
REMARK  status: ('A' for Active; 'I' for Inactive)
REMARK    1  A    between atoms: _1  and  _2
REMARK    2  A    between atoms: _3  and  _13
REMARK                            x       y       z     vdW  Elec       q    Type
REMARK                         _______ _______ _______ _____ _____    ______ ____
ROOT
ATOM      1  C   UNL     1       7.659  17.337  25.306  0.00  0.00    +0.045 C 
ATOM      2  C   UNL     1       8.658  17.141  24.179  0.00  0.00    -0.028 A 
ATOM      3  C   UNL     1       8.181  16.987  22.832  0.00  0.00    +0.068 A 
ATOM      4  C   UNL     1       6.704  17.006  22.477  0.00  0.00    +0.259 A 
ATOM      5  O   UNL     1       5.830  17.155  23.306  0.00  0.00    -0.267 OA
ATOM      6  N   UNL     1       6.305  16.850  21.148  0.00  0.00    -0.313 N 
ATOM      7  C   UNL     1       7.266  16.677  20.117  0.00  0.00    +0.199 A 
ATOM      8  N   UNL     1       8.662  16.657  20.441  0.00  0.00    -0.237 NA
ATOM      9  H   UNL     1       5.417  16.859  20.939  0.00  0.00    +0.170 HD
ATOM     10  C   UNL     1       9.087  16.814  21.820  0.00  0.00    +0.078 A 
ATOM     11  C   UNL     1      10.479  16.783  22.082  0.00  0.00    +0.029 A 
ATOM     12  C   UNL     1      10.936  16.931  23.379  0.00  0.00    +0.011 A 
ATOM     13  C   UNL     1      10.044  17.091  24.436  0.00  0.00    -0.013 A 
ENDROOT
BRANCH  13  14
ATOM     14  C   UNL     1      10.648  17.271  25.683  0.00  0.00    -0.008 A 
ATOM     15  C   UNL     1      10.983  16.231  26.604  0.00  0.00    +0.008 A 
ATOM     16  C   UNL     1      10.715  14.859  26.325  0.00  0.00    +0.012 A 
ATOM     17  C   UNL     1      11.062  13.895  27.270  0.00  0.00    +0.020 A 
ATOM     18  C   UNL     1      11.670  14.274  28.467  0.00  0.00    +0.111 A 
ATOM     19  N   UNL     1      11.915  15.573  28.711  0.00  0.00    -0.255 NA
ATOM     20  C   UNL     1      11.581  16.549  27.795  0.00  0.00    +0.072 A 
ATOM     21  C   UNL     1      11.883  17.900  28.123  0.00  0.00    +0.028 A 
ATOM     22  C   UNL     1      11.557  18.911  27.231  0.00  0.00    +0.003 A 
ATOM     23  C   UNL     1      10.949  18.592  26.016  0.00  0.00    +0.009 A 
ENDBRANCH  13  14
TORSDOF 1
ENDMDL
MODEL 3
REMARK VINA RESULT:      -6.2      0.854      2.334
REMARK  Name = 6GI6_EZB.pdb
REMARK  2 active torsions:
REMARK  status: ('A' for Active; 'I' for Inactive)
REMARK    1  A    between atoms: _1  and  _2
REMARK    2  A    between atoms: _3  and  _13
REMARK                            x       y       z     vdW  Elec       q    Type
REMARK                         _______ _______ _______ _____ _____    ______ ____
ROOT
ATOM      1  C   UNL     1       9.382  13.059  25.222  0.00  0.00    +0.045 C 
ATOM      2  C   UNL     1       8.969  14.493  25.502  0.00  0.00    -0.028 A 
ATOM      3  C   UNL     1       8.416  15.287  24.440  0.00  0.00    +0.068 A 
ATOM      4  C   UNL     1       8.226  14.755  23.030  0.00  0.00    +0.259 A 
ATOM      5  O   UNL     1       8.526  13.624  22.708  0.00  0.00    -0.267 OA
ATOM      6  N   UNL     1       7.684  15.579  22.041  0.00  0.00    -0.313 N 
ATOM      7  C   UNL     1       7.301  16.914  22.338  0.00  0.00    +0.199 A 
ATOM      8  N   UNL     1       7.475  17.426  23.665  0.00  0.00    -0.237 NA
ATOM      9  H   UNL     1       7.574  15.256  21.195  0.00  0.00    +0.170 HD
ATOM     10  C   UNL     1       8.042  16.579  24.699  0.00  0.00    +0.078 A 
ATOM     11  C   UNL     1       8.195  17.139  25.991  0.00  0.00    +0.029 A 
ATOM     12  C   UNL     1       8.729  16.373  27.012  0.00  0.00    +0.011 A 
ATOM     13  C   UNL     1       9.136  15.062  26.781  0.00  0.00    -0.013 A 
ENDROOT
BRANCH  13  14
ATOM     14  C   UNL     1       9.614  14.396  27.913  0.00  0.00    -0.008 A 
ATOM     15  C   UNL     1       8.834  13.585  28.794  0.00  0.00    +0.008 A 
ATOM     16  C   UNL     1       7.437  13.380  28.594  0.00  0.00    +0.012 A 
ATOM     17  C   UNL     1       6.734  12.583  29.495  0.00  0.00    +0.020 A 
ATOM     18  C   UNL     1       7.395  11.991  30.572  0.00  0.00    +0.111 A 
ATOM     19  N   UNL     1       8.713  12.196  30.743  0.00  0.00    -0.255 NA
ATOM     20  C   UNL     1       9.434  12.982  29.867  0.00  0.00    +0.072 A 
ATOM     21  C   UNL     1      10.826  13.142  30.111  0.00  0.00    +0.028 A 
ATOM     22  C   UNL     1      11.586  13.930  29.258  0.00  0.00    +0.003 A 
ATOM     23  C   UNL     1      10.979  14.545  28.162  0.00  0.00    +0.009 A 
ENDBRANCH  13  14
TORSDOF 1
ENDMDL
MODEL 4
REMARK VINA RESULT:      -6.2      3.678      6.042
REMARK  Name = 6GI6_EZB.pdb
REMARK  2 active torsions:
REMARK  status: ('A' for Active; 'I' for Inactive)
REMARK    1  A    between atoms: _1  and  _2
REMARK    2  A    between atoms: _3  and  _13
REMARK                            x       y       z     vdW  Elec       q    Type
REMARK                         _______ _______ _______ _____ _____    ______ ____
ROOT
ATOM      1  C   UNL     1       5.402  14.046  22.074  0.00  0.00    +0.045 C 
ATOM      2  C   UNL     1       6.242  14.794  21.054  0.00  0.00    -0.028 A 
ATOM      3  C   UNL     1       5.946  14.650  19.655  0.00  0.00    +0.068 A 
ATOM      4  C   UNL     1       4.821  13.768  19.140  0.00  0.00    +0.259 A 
ATOM      5  O   UNL     1       4.097  13.130  19.876  0.00  0.00    -0.267 OA
ATOM      6  N   UNL     1       4.586  13.669  17.766  0.00  0.00    -0.313 N 
ATOM      7  C   UNL     1       5.386  14.389  16.840  0.00  0.00    +0.199 A 
ATOM      8  N   UNL     1       6.450  15.224  17.315  0.00  0.00    -0.237 NA
ATOM      9  H   UNL     1       3.912  13.137  17.461  0.00  0.00    +0.170 HD
ATOM     10  C   UNL     1       6.705  15.330  18.740  0.00  0.00    +0.078 A 
ATOM     11  C   UNL     1       7.772  16.167  19.153  0.00  0.00    +0.029 A 
ATOM     12  C   UNL     1       8.055  16.304  20.500  0.00  0.00    +0.011 A 
ATOM     13  C   UNL     1       7.316  15.614  21.457  0.00  0.00    -0.013 A 
ENDROOT
BRANCH  13  14
ATOM     14  C   UNL     1       7.685  15.882  22.778  0.00  0.00    -0.008 A 
ATOM     15  C   UNL     1       8.494  15.040  23.603  0.00  0.00    +0.008 A 
ATOM     16  C   UNL     1       9.013  13.798  23.137  0.00  0.00    +0.012 A 
ATOM     17  C   UNL     1       9.790  13.022  23.996  0.00  0.00    +0.020 A 
ATOM     18  C   UNL     1      10.058  13.466  25.292  0.00  0.00    +0.111 A 
ATOM     19  N   UNL     1       9.559  14.642  25.712  0.00  0.00    -0.255 NA
ATOM     20  C   UNL     1       8.785  15.429  24.884  0.00  0.00    +0.072 A 
ATOM     21  C   UNL     1       8.304  16.664  25.400  0.00  0.00    +0.028 A 
ATOM     22  C   UNL     1       7.517  17.481  24.602  0.00  0.00    +0.003 A 
ATOM     23  C   UNL     1       7.219  17.091  23.296  0.00  0.00    +0.009 A 
ENDBRANCH  13  14
TORSDOF 1
ENDMDL
MODEL 5
REMARK VINA RESULT:      -6.2      3.216      4.737
REMARK  Name = 6GI6_EZB.pdb
REMARK  2 active torsions:
REMARK  status: ('A' for Active; 'I' for Inactive)
REMARK    1  A    between atoms: _1  and  _2
REMARK    2  A    between atoms: _3  and  _13
REMARK                            x       y       z     vdW  Elec       q    Type
REMARK                         _______ _______ _______ _____ _____    ______ ____
ROOT
ATOM      1  C   UNL     1      11.370  13.623  28.262  0.00  0.00    +0.045 C 
ATOM      2  C   UNL     1      10.773  14.929  27.766  0.00  0.00    -0.028 A 
ATOM      3  C   UNL     1      11.614  16.088  27.648  0.00  0.00    +0.068 A 
ATOM      4  C   UNL     1      13.090  16.072  28.006  0.00  0.00    +0.259 A 
ATOM      5  O   UNL     1      13.657  15.079  28.411  0.00  0.00    -0.267 OA
ATOM      6  N   UNL     1      13.853  17.234  27.870  0.00  0.00    -0.313 N 
ATOM      7  C   UNL     1      13.265  18.437  27.396  0.00  0.00    +0.199 A 
ATOM      8  N   UNL     1      11.873  18.463  27.056  0.00  0.00    -0.237 NA
ATOM      9  H   UNL     1      14.738  17.221  28.088  0.00  0.00    +0.170 HD
ATOM     10  C   UNL     1      11.071  17.262  27.197  0.00  0.00    +0.078 A 
ATOM     11  C   UNL     1       9.700  17.347  26.850  0.00  0.00    +0.029 A 
ATOM     12  C   UNL     1       8.892  16.230  26.965  0.00  0.00    +0.011 A 
ATOM     13  C   UNL     1       9.406  15.025  27.436  0.00  0.00    -0.013 A 
ENDROOT
BRANCH  13  14
ATOM     14  C   UNL     1       8.487  13.972  27.458  0.00  0.00    -0.008 A 
ATOM     15  C   UNL     1       8.317  12.994  26.430  0.00  0.00    +0.008 A 
ATOM     16  C   UNL     1       9.096  13.008  25.237  0.00  0.00    +0.012 A 
ATOM     17  C   UNL     1       8.875  12.028  24.271  0.00  0.00    +0.020 A 
ATOM     18  C   UNL     1       7.907  11.045  24.479  0.00  0.00    +0.111 A 
ATOM     19  N   UNL     1       7.182  11.049  25.612  0.00  0.00    -0.255 NA
ATOM     20  C   UNL     1       7.378  12.008  26.584  0.00  0.00    +0.072 A 
ATOM     21  C   UNL     1       6.579  11.937  27.758  0.00  0.00    +0.028 A 
ATOM     22  C   UNL     1       6.740  12.886  28.756  0.00  0.00    +0.003 A 
ATOM     23  C   UNL     1       7.696  13.892  28.606  0.00  0.00    +0.009 A 
ENDBRANCH  13  14
TORSDOF 1
ENDMDL
MODEL 6
REMARK VINA RESULT:      -6.1      3.412      7.882
REMARK  Name = 6GI6_EZB.pdb
REMARK  2 active torsions:
REMARK  status: ('A' for Active; 'I' for Inactive)
REMARK    1  A    between atoms: _1  and  _2
REMARK    2  A    between atoms: _3  and  _13
REMARK                            x       y       z     vdW  Elec       q    Type
REMARK                         _______ _______ _______ _____ _____    ______ ____
ROOT
ATOM      1  C   UNL     1       8.461  13.542  22.756  0.00  0.00    +0.045 C 
ATOM      2  C   UNL     1       8.005  14.931  23.166  0.00  0.00    -0.028 A 
ATOM      3  C   UNL     1       8.356  15.434  24.465  0.00  0.00    +0.068 A 
ATOM      4  C   UNL     1       9.168  14.628  25.465  0.00  0.00    +0.259 A 
ATOM      5  O   UNL     1       9.576  13.510  25.231  0.00  0.00    -0.267 OA
ATOM      6  N   UNL     1       9.475  15.174  26.714  0.00  0.00    -0.313 N 
ATOM      7  C   UNL     1       9.039  16.480  27.062  0.00  0.00    +0.199 A 
ATOM      8  N   UNL     1       8.273  17.248  26.126  0.00  0.00    -0.237 NA
ATOM      9  H   UNL     1       9.960  14.686  27.312  0.00  0.00    +0.170 HD
ATOM     10  C   UNL     1       7.945  16.689  24.828  0.00  0.00    +0.078 A 
ATOM     11  C   UNL     1       7.182  17.492  23.944  0.00  0.00    +0.029 A 
ATOM     12  C   UNL     1       6.845  17.007  22.694  0.00  0.00    +0.011 A 
ATOM     13  C   UNL     1       7.230  15.728  22.298  0.00  0.00    -0.013 A 
ENDROOT
BRANCH  13  14
ATOM     14  C   UNL     1       6.857  15.388  20.995  0.00  0.00    -0.008 A 
ATOM     15  C   UNL     1       5.743  14.568  20.635  0.00  0.00    +0.008 A 
ATOM     16  C   UNL     1       4.880  13.994  21.613  0.00  0.00    +0.012 A 
ATOM     17  C   UNL     1       3.815  13.198  21.194  0.00  0.00    +0.020 A 
ATOM     18  C   UNL     1       3.599  12.977  19.833  0.00  0.00    +0.111 A 
ATOM     19  N   UNL     1       4.424  13.528  18.926  0.00  0.00    -0.255 NA
ATOM     20  C   UNL     1       5.487  14.318  19.313  0.00  0.00    +0.072 A 
ATOM     21  C   UNL     1       6.308  14.873  18.292  0.00  0.00    +0.028 A 
ATOM     22  C   UNL     1       7.390  15.668  18.639  0.00  0.00    +0.003 A 
ATOM     23  C   UNL     1       7.655  15.927  19.984  0.00  0.00    +0.009 A 
ENDBRANCH  13  14
TORSDOF 1
ENDMDL
MODEL 7
REMARK VINA RESULT:      -6.0      2.208      6.483
REMARK  Name = 6GI6_EZB.pdb
REMARK  2 active torsions:
REMARK  status: ('A' for Active; 'I' for Inactive)
REMARK    1  A    between atoms: _1  and  _2
REMARK    2  A    between atoms: _3  and  _13
REMARK                            x       y       z     vdW  Elec       q    Type
REMARK                         _______ _______ _______ _____ _____    ______ ____
ROOT
ATOM      1  C   UNL     1      11.887  13.872  27.545  0.00  0.00    +0.045 C 
ATOM      2  C   UNL     1      10.447  13.751  28.012  0.00  0.00    -0.028 A 
ATOM      3  C   UNL     1      10.176  13.338  29.361  0.00  0.00    +0.068 A 
ATOM      4  C   UNL     1      11.275  13.006  30.355  0.00  0.00    +0.259 A 
ATOM      5  O   UNL     1      12.455  13.071  30.077  0.00  0.00    -0.267 OA
ATOM      6  N   UNL     1      10.945  12.608  31.653  0.00  0.00    -0.313 N 
ATOM      7  C   UNL     1       9.588  12.512  32.059  0.00  0.00    +0.199 A 
ATOM      8  N   UNL     1       8.542  12.823  31.129  0.00  0.00    -0.237 NA
ATOM      9  H   UNL     1      11.608  12.407  32.246  0.00  0.00    +0.170 HD
ATOM     10  C   UNL     1       8.875  13.233  29.777  0.00  0.00    +0.078 A 
ATOM     11  C   UNL     1       7.801  13.524  28.900  0.00  0.00    +0.029 A 
ATOM     12  C   UNL     1       8.064  13.922  27.601  0.00  0.00    +0.011 A 
ATOM     13  C   UNL     1       9.373  14.022  27.138  0.00  0.00    -0.013 A 
ENDROOT
BRANCH  13  14
ATOM     14  C   UNL     1       9.490  14.475  25.822  0.00  0.00    -0.008 A 
ATOM     15  C   UNL     1       9.783  15.817  25.427  0.00  0.00    +0.008 A 
ATOM     16  C   UNL     1       9.986  16.859  26.379  0.00  0.00    +0.012 A 
ATOM     17  C   UNL     1      10.263  18.147  25.926  0.00  0.00    +0.020 A 
ATOM     18  C   UNL     1      10.346  18.406  24.557  0.00  0.00    +0.111 A 
ATOM     19  N   UNL     1      10.152  17.410  23.675  0.00  0.00    -0.255 NA
ATOM     20  C   UNL     1       9.875  16.125  24.095  0.00  0.00    +0.072 A 
ATOM     21  C   UNL     1       9.693  15.126  23.100  0.00  0.00    +0.028 A 
ATOM     22  C   UNL     1       9.406  13.823  23.480  0.00  0.00    +0.003 A 
ATOM     23  C   UNL     1       9.314  13.504  24.836  0.00  0.00    +0.009 A 
ENDBRANCH  13  14
TORSDOF 1
ENDMDL
MODEL 8
REMARK VINA RESULT:      -5.9      3.426      6.334
REMARK  Name = 6GI6_EZB.pdb
REMARK  2 active torsions:
REMARK  status: ('A' for Active; 'I' for Inactive)
REMARK    1  A    between atoms: _1  and  _2
REMARK    2  A    between atoms: _3  and  _13
REMARK                            x       y       z     vdW  Elec       q    Type
REMARK                         _______ _______ _______ _____ _____    ______ ____
ROOT
ATOM      1  C   UNL     1       9.474  15.735  26.791  0.00  0.00    +0.045 C 
ATOM      2  C   UNL     1      10.347  16.634  25.933  0.00  0.00    -0.028 A 
ATOM      3  C   UNL     1      11.595  17.115  26.459  0.00  0.00    +0.068 A 
ATOM      4  C   UNL     1      12.086  16.768  27.854  0.00  0.00    +0.259 A 
ATOM      5  O   UNL     1      11.460  16.059  28.614  0.00  0.00    -0.267 OA
ATOM      6  N   UNL     1      13.309  17.271  28.307  0.00  0.00    -0.313 N 
ATOM      7  C   UNL     1      14.104  18.103  27.476  0.00  0.00    +0.199 A 
ATOM      8  N   UNL     1      13.650  18.436  26.158  0.00  0.00    -0.237 NA
ATOM      9  H   UNL     1      13.599  17.062  29.146  0.00  0.00    +0.170 HD
ATOM     10  C   UNL     1      12.379  17.923  25.679  0.00  0.00    +0.078 A 
ATOM     11  C   UNL     1      11.978  18.288  24.371  0.00  0.00    +0.029 A 
ATOM     12  C   UNL     1      10.777  17.824  23.866  0.00  0.00    +0.011 A 
ATOM     13  C   UNL     1       9.945  17.016  24.637  0.00  0.00    -0.013 A 
ENDROOT
BRANCH  13  14
ATOM     14  C   UNL     1       8.787  16.586  23.984  0.00  0.00    -0.008 A 
ATOM     15  C   UNL     1       8.554  15.269  23.481  0.00  0.00    +0.008 A 
ATOM     16  C   UNL     1       9.525  14.232  23.599  0.00  0.00    +0.012 A 
ATOM     17  C   UNL     1       9.237  12.971  23.082  0.00  0.00    +0.020 A 
ATOM     18  C   UNL     1       8.008  12.731  22.464  0.00  0.00    +0.111 A 
ATOM     19  N   UNL     1       7.106  13.722  22.363  0.00  0.00    -0.255 NA
ATOM     20  C   UNL     1       7.365  14.981  22.864  0.00  0.00    +0.072 A 
ATOM     21  C   UNL     1       6.354  15.972  22.727  0.00  0.00    +0.028 A 
ATOM     22  C   UNL     1       6.578  17.252  23.212  0.00  0.00    +0.003 A 
ATOM     23  C   UNL     1       7.787  17.550  23.843  0.00  0.00    +0.009 A 
ENDBRANCH  13  14
TORSDOF 1
ENDMDL
MODEL 9
REMARK VINA RESULT:      -5.9      3.562      6.403
REMARK  Name = 6GI6_EZB.pdb
REMARK  2 active torsions:
REMARK  status: ('A' for Active; 'I' for Inactive)
REMARK    1  A    between atoms: _1  and  _2
REMARK    2  A    between atoms: _3  and  _13
REMARK                            x       y       z     vdW  Elec       q    Type
REMARK                         _______ _______ _______ _____ _____    ______ ____
ROOT
ATOM      1  C   UNL     1      11.015  16.201  23.466  0.00  0.00    +0.045 C 
ATOM      2  C   UNL     1      10.219  16.232  24.759  0.00  0.00    -0.028 A 
ATOM      3  C   UNL     1      10.616  17.127  25.810  0.00  0.00    +0.068 A 
ATOM      4  C   UNL     1      11.814  18.053  25.692  0.00  0.00    +0.259 A 
ATOM      5  O   UNL     1      12.513  18.100  24.701  0.00  0.00    -0.267 OA
ATOM      6  N   UNL     1      12.149  18.898  26.753  0.00  0.00    -0.313 N 
ATOM      7  C   UNL     1      11.377  18.908  27.945  0.00  0.00    +0.199 A 
ATOM      8  N   UNL     1      10.245  18.038  28.067  0.00  0.00    -0.237 NA
ATOM      9  H   UNL     1      12.871  19.451  26.678  0.00  0.00    +0.170 HD
ATOM     10  C   UNL     1       9.891  17.153  26.973  0.00  0.00    +0.078 A 
ATOM     11  C   UNL     1       8.764  16.312  27.150  0.00  0.00    +0.029 A 
ATOM     12  C   UNL     1       8.384  15.451  26.137  0.00  0.00    +0.011 A 
ATOM     13  C   UNL     1       9.107  15.385  24.949  0.00  0.00    -0.013 A 
ENDROOT
BRANCH  13  14
ATOM     14  C   UNL     1       8.583  14.504  23.999  0.00  0.00    -0.008 A 
ATOM     15  C   UNL     1       7.579  14.822  23.033  0.00  0.00    +0.008 A 
ATOM     16  C   UNL     1       6.992  16.118  22.951  0.00  0.00    +0.012 A 
ATOM     17  C   UNL     1       6.013  16.360  21.990  0.00  0.00    +0.020 A 
ATOM     18  C   UNL     1       5.622  15.344  21.116  0.00  0.00    +0.111 A 
ATOM     19  N   UNL     1       6.188  14.128  21.210  0.00  0.00    -0.255 NA
ATOM     20  C   UNL     1       7.158  13.860  22.153  0.00  0.00    +0.072 A 
ATOM     21  C   UNL     1       7.716  12.552  22.180  0.00  0.00    +0.028 A 
ATOM     22  C   UNL     1       8.689  12.240  23.118  0.00  0.00    +0.003 A 
ATOM     23  C   UNL     1       9.122  13.217  24.015  0.00  0.00    +0.009 A 
ENDBRANCH  13  14
TORSDOF 1
ENDMDL
