MODEL 1
REMARK VINA RESULT:      -8.4      0.000      0.000
REMARK  Name = 4DYM_IYZ.pdb
REMARK  4 active torsions:
REMARK  status: ('A' for Active; 'I' for Inactive)
REMARK    1  A    between atoms: _11  and  _18
REMARK    2  A    between atoms: _11  and  _21
REMARK    3  A    between atoms: _12  and  _13
REMARK    4  A    between atoms: _14  and  _16
REMARK                            x       y       z     vdW  Elec       q    Type
REMARK                         _______ _______ _______ _____ _____    ______ ____
ROOT
ATOM      1  C   UNL     1       6.413  27.020  16.008  0.00  0.00    +0.104 A 
ATOM      2  N   UNL     1       6.005  26.851  14.684  0.00  0.00    -0.210 N 
ATOM      3  N   UNL     1       5.483  25.903  14.076  0.00  0.00    -0.147 NA
ATOM      4  C   UNL     1       5.130  25.954  12.768  0.00  0.00    +0.168 A 
ATOM      5  N   UNL     1       4.608  24.852  12.174  0.00  0.00    -0.219 NA
ATOM      6  C   UNL     1       5.319  27.142  12.050  0.00  0.00    +0.041 A 
ATOM      7  C   UNL     1       5.867  28.214  12.715  0.00  0.00    +0.042 A 
ATOM      8  C   UNL     1       6.224  28.075  14.052  0.00  0.00    +0.164 A 
ATOM      9  N   UNL     1       6.789  28.893  14.948  0.00  0.00    -0.223 NA
ATOM     10  C   UNL     1       6.874  28.280  16.136  0.00  0.00    +0.120 A 
ENDROOT
BRANCH   1  13
ATOM     11  C   UNL     1       5.786  25.346  19.251  0.00  0.00    +0.035 A 
ATOM     12  C   UNL     1       5.897  26.312  18.267  0.00  0.00    +0.004 A 
ATOM     13  C   UNL     1       6.296  26.009  16.962  0.00  0.00    +0.019 A 
ATOM     14  C   UNL     1       6.652  24.688  16.648  0.00  0.00    +0.002 A 
ATOM     15  C   UNL     1       6.555  23.696  17.643  0.00  0.00    +0.000 A 
ATOM     16  C   UNL     1       6.112  24.032  18.942  0.00  0.00    +0.003 A 
BRANCH  11  18
ATOM     17  C   UNL     1       5.781  25.018  21.897  0.00  0.00    +0.077 C 
ATOM     18  C   UNL     1       5.268  25.760  20.668  0.00  0.00    +0.173 C 
ATOM     19  O   UNL     1       4.498  26.710  20.830  0.00  0.00    -0.291 OA
ENDBRANCH  11  18
ENDBRANCH   1  13
BRANCH   5  20
ATOM     20  C   UNL     1       3.992  23.765  12.941  0.00  0.00    +0.114 C 
BRANCH  20  21
ATOM     21  C   UNL     1       4.843  22.477  12.938  0.00  0.00    +0.022 C 
ATOM     22  C   UNL     1       6.280  22.585  13.466  0.00  0.00    +0.002 C 
ATOM     23  C   UNL     1       5.216  21.950  14.345  0.00  0.00    +0.002 C 
ENDBRANCH  20  21
ENDBRANCH   5  20
TORSDOF 4
ENDMDL
MODEL 2
REMARK VINA RESULT:      -8.1      1.717      2.504
REMARK  Name = 4DYM_IYZ.pdb
REMARK  4 active torsions:
REMARK  status: ('A' for Active; 'I' for Inactive)
REMARK    1  A    between atoms: _11  and  _18
REMARK    2  A    between atoms: _11  and  _21
REMARK    3  A    between atoms: _12  and  _13
REMARK    4  A    between atoms: _14  and  _16
REMARK                            x       y       z     vdW  Elec       q    Type
REMARK                         _______ _______ _______ _____ _____    ______ ____
ROOT
ATOM      1  C   UNL     1       6.512  26.855  16.287  0.00  0.00    +0.104 A 
ATOM      2  N   UNL     1       6.112  26.763  14.953  0.00  0.00    -0.210 N 
ATOM      3  N   UNL     1       5.563  25.865  14.296  0.00  0.00    -0.147 NA
ATOM      4  C   UNL     1       5.226  25.989  12.989  0.00  0.00    +0.168 A 
ATOM      5  N   UNL     1       4.670  24.936  12.339  0.00  0.00    -0.219 NA
ATOM      6  C   UNL     1       5.466  27.202  12.329  0.00  0.00    +0.041 A 
ATOM      7  C   UNL     1       6.046  28.221  13.049  0.00  0.00    +0.042 A 
ATOM      8  C   UNL     1       6.383  28.006  14.382  0.00  0.00    +0.164 A 
ATOM      9  N   UNL     1       6.968  28.760  15.321  0.00  0.00    -0.223 NA
ATOM     10  C   UNL     1       7.018  28.089  16.479  0.00  0.00    +0.120 A 
ENDROOT
BRANCH   1  13
ATOM     11  C   UNL     1       6.659  23.450  17.738  0.00  0.00    +0.035 A 
ATOM     12  C   UNL     1       6.817  24.525  16.881  0.00  0.00    +0.004 A 
ATOM     13  C   UNL     1       6.347  25.805  17.191  0.00  0.00    +0.019 A 
ATOM     14  C   UNL     1       5.641  25.999  18.389  0.00  0.00    +0.002 A 
ATOM     15  C   UNL     1       5.462  24.912  19.265  0.00  0.00    +0.000 A 
ATOM     16  C   UNL     1       5.984  23.640  18.936  0.00  0.00    +0.003 A 
BRANCH  11  18
ATOM     17  C   UNL     1       6.507  20.789  17.663  0.00  0.00    +0.077 C 
ATOM     18  C   UNL     1       7.275  22.067  17.343  0.00  0.00    +0.173 C 
ATOM     19  O   UNL     1       8.339  21.978  16.727  0.00  0.00    -0.291 OA
ENDBRANCH  11  18
ENDBRANCH   1  13
BRANCH   5  20
ATOM     20  C   UNL     1       4.006  23.839  13.048  0.00  0.00    +0.114 C 
BRANCH  20  21
ATOM     21  C   UNL     1       4.809  22.521  12.990  0.00  0.00    +0.022 C 
ATOM     22  C   UNL     1       6.238  22.544  13.550  0.00  0.00    +0.002 C 
ATOM     23  C   UNL     1       5.132  21.904  14.373  0.00  0.00    +0.002 C 
ENDBRANCH  20  21
ENDBRANCH   5  20
TORSDOF 4
ENDMDL
MODEL 3
REMARK VINA RESULT:      -8.0      1.755      2.987
REMARK  Name = 4DYM_IYZ.pdb
REMARK  4 active torsions:
REMARK  status: ('A' for Active; 'I' for Inactive)
REMARK    1  A    between atoms: _11  and  _18
REMARK    2  A    between atoms: _11  and  _21
REMARK    3  A    between atoms: _12  and  _13
REMARK    4  A    between atoms: _14  and  _16
REMARK                            x       y       z     vdW  Elec       q    Type
REMARK                         _______ _______ _______ _____ _____    ______ ____
ROOT
ATOM      1  C   UNL     1       6.027  27.587  13.730  0.00  0.00    +0.104 A 
ATOM      2  N   UNL     1       5.957  26.427  12.957  0.00  0.00    -0.210 N 
ATOM      3  N   UNL     1       6.261  25.244  13.180  0.00  0.00    -0.147 NA
ATOM      4  C   UNL     1       6.083  24.242  12.285  0.00  0.00    +0.168 A 
ATOM      5  N   UNL     1       6.488  22.986  12.599  0.00  0.00    -0.219 NA
ATOM      6  C   UNL     1       5.492  24.523  11.046  0.00  0.00    +0.041 A 
ATOM      7  C   UNL     1       5.120  25.823  10.792  0.00  0.00    +0.042 A 
ATOM      8  C   UNL     1       5.357  26.799  11.755  0.00  0.00    +0.164 A 
ATOM      9  N   UNL     1       5.146  28.120  11.804  0.00  0.00    -0.223 NA
ATOM     10  C   UNL     1       5.513  28.596  13.001  0.00  0.00    +0.120 A 
ENDROOT
BRANCH   1  13
ATOM     11  C   UNL     1       6.524  26.645  17.277  0.00  0.00    +0.035 A 
ATOM     12  C   UNL     1       6.067  26.666  15.972  0.00  0.00    +0.004 A 
ATOM     13  C   UNL     1       6.531  27.590  15.031  0.00  0.00    +0.019 A 
ATOM     14  C   UNL     1       7.453  28.569  15.436  0.00  0.00    +0.002 A 
ATOM     15  C   UNL     1       7.918  28.566  16.765  0.00  0.00    +0.000 A 
ATOM     16  C   UNL     1       7.455  27.594  17.679  0.00  0.00    +0.003 A 
BRANCH  11  18
ATOM     17  C   UNL     1       5.145  25.930  19.445  0.00  0.00    +0.077 C 
ATOM     18  C   UNL     1       6.001  25.533  18.247  0.00  0.00    +0.173 C 
ATOM     19  O   UNL     1       6.212  24.335  18.042  0.00  0.00    -0.291 OA
ENDBRANCH  11  18
ENDBRANCH   1  13
BRANCH   5  20
ATOM     20  C   UNL     1       6.692  22.551  13.984  0.00  0.00    +0.114 C 
BRANCH  20  21
ATOM     21  C   UNL     1       5.679  21.473  14.425  0.00  0.00    +0.022 C 
ATOM     22  C   UNL     1       6.239  20.226  15.122  0.00  0.00    +0.002 C 
ATOM     23  C   UNL     1       5.556  21.296  15.958  0.00  0.00    +0.002 C 
ENDBRANCH  20  21
ENDBRANCH   5  20
TORSDOF 4
ENDMDL
MODEL 4
REMARK VINA RESULT:      -7.9      2.115      5.025
REMARK  Name = 4DYM_IYZ.pdb
REMARK  4 active torsions:
REMARK  status: ('A' for Active; 'I' for Inactive)
REMARK    1  A    between atoms: _11  and  _18
REMARK    2  A    between atoms: _11  and  _21
REMARK    3  A    between atoms: _12  and  _13
REMARK    4  A    between atoms: _14  and  _16
REMARK                            x       y       z     vdW  Elec       q    Type
REMARK                         _______ _______ _______ _____ _____    ______ ____
ROOT
ATOM      1  C   UNL     1       5.463  26.384  13.605  0.00  0.00    +0.104 A 
ATOM      2  N   UNL     1       6.015  27.038  14.707  0.00  0.00    -0.210 N 
ATOM      3  N   UNL     1       6.392  26.642  15.822  0.00  0.00    -0.147 NA
ATOM      4  C   UNL     1       6.941  27.452  16.760  0.00  0.00    +0.168 A 
ATOM      5  N   UNL     1       7.280  26.940  17.969  0.00  0.00    -0.219 NA
ATOM      6  C   UNL     1       7.139  28.809  16.467  0.00  0.00    +0.041 A 
ATOM      7  C   UNL     1       6.756  29.260  15.225  0.00  0.00    +0.042 A 
ATOM      8  C   UNL     1       6.180  28.369  14.325  0.00  0.00    +0.164 A 
ATOM      9  N   UNL     1       5.689  28.494  13.086  0.00  0.00    -0.223 NA
ATOM     10  C   UNL     1       5.287  27.299  12.632  0.00  0.00    +0.120 A 
ENDROOT
BRANCH   1  13
ATOM     11  C   UNL     1       5.642  22.800  14.520  0.00  0.00    +0.035 A 
ATOM     12  C   UNL     1       5.855  24.167  14.500  0.00  0.00    +0.004 A 
ATOM     13  C   UNL     1       5.200  25.014  13.601  0.00  0.00    +0.019 A 
ATOM     14  C   UNL     1       4.337  24.456  12.645  0.00  0.00    +0.002 A 
ATOM     15  C   UNL     1       4.119  23.065  12.646  0.00  0.00    +0.000 A 
ATOM     16  C   UNL     1       4.769  22.243  13.595  0.00  0.00    +0.003 A 
BRANCH  11  18
ATOM     17  C   UNL     1       5.647  20.724  16.194  0.00  0.00    +0.077 C 
ATOM     18  C   UNL     1       6.364  21.933  15.604  0.00  0.00    +0.173 C 
ATOM     19  O   UNL     1       7.523  22.163  15.958  0.00  0.00    -0.291 OA
ENDBRANCH  11  18
ENDBRANCH   1  13
BRANCH   5  20
ATOM     20  C   UNL     1       7.509  25.507  18.177  0.00  0.00    +0.114 C 
BRANCH  20  21
ATOM     21  C   UNL     1       6.578  24.906  19.252  0.00  0.00    +0.022 C 
ATOM     22  C   UNL     1       5.075  25.188  19.116  0.00  0.00    +0.002 C 
ATOM     23  C   UNL     1       5.608  23.819  18.727  0.00  0.00    +0.002 C 
ENDBRANCH  20  21
ENDBRANCH   5  20
TORSDOF 4
ENDMDL
MODEL 5
REMARK VINA RESULT:      -7.8      3.073      6.289
REMARK  Name = 4DYM_IYZ.pdb
REMARK  4 active torsions:
REMARK  status: ('A' for Active; 'I' for Inactive)
REMARK    1  A    between atoms: _11  and  _18
REMARK    2  A    between atoms: _11  and  _21
REMARK    3  A    between atoms: _12  and  _13
REMARK    4  A    between atoms: _14  and  _16
REMARK                            x       y       z     vdW  Elec       q    Type
REMARK                         _______ _______ _______ _____ _____    ______ ____
ROOT
ATOM      1  C   UNL     1       7.147  23.274  14.440  0.00  0.00    +0.104 A 
ATOM      2  N   UNL     1       6.767  22.588  15.595  0.00  0.00    -0.210 N 
ATOM      3  N   UNL     1       6.808  22.878  16.802  0.00  0.00    -0.147 NA
ATOM      4  C   UNL     1       6.351  22.066  17.785  0.00  0.00    +0.168 A 
ATOM      5  N   UNL     1       6.481  22.447  19.081  0.00  0.00    -0.219 NA
ATOM      6  C   UNL     1       5.759  20.842  17.447  0.00  0.00    +0.041 A 
ATOM      7  C   UNL     1       5.675  20.516  16.113  0.00  0.00    +0.042 A 
ATOM      8  C   UNL     1       6.188  21.395  15.165  0.00  0.00    +0.164 A 
ATOM      9  N   UNL     1       6.285  21.361  13.830  0.00  0.00    -0.223 NA
ATOM     10  C   UNL     1       6.828  22.502  13.383  0.00  0.00    +0.120 A 
ENDROOT
BRANCH   1  13
ATOM     11  C   UNL     1       7.447  26.965  14.444  0.00  0.00    +0.035 A 
ATOM     12  C   UNL     1       6.919  25.686  14.428  0.00  0.00    +0.004 A 
ATOM     13  C   UNL     1       7.723  24.543  14.479  0.00  0.00    +0.019 A 
ATOM     14  C   UNL     1       9.119  24.693  14.491  0.00  0.00    +0.002 A 
ATOM     15  C   UNL     1       9.670  25.988  14.495  0.00  0.00    +0.000 A 
ATOM     16  C   UNL     1       8.827  27.121  14.481  0.00  0.00    +0.003 A 
BRANCH  11  18
ATOM     17  C   UNL     1       6.559  29.204  15.587  0.00  0.00    +0.077 C 
ATOM     18  C   UNL     1       6.473  28.189  14.452  0.00  0.00    +0.173 C 
ATOM     19  O   UNL     1       5.673  28.394  13.536  0.00  0.00    -0.291 OA
ENDBRANCH  11  18
ENDBRANCH   1  13
BRANCH   5  20
ATOM     20  C   UNL     1       6.671  23.847  19.471  0.00  0.00    +0.114 C 
BRANCH  20  21
ATOM     21  C   UNL     1       5.429  24.718  19.187  0.00  0.00    +0.022 C 
ATOM     22  C   UNL     1       5.347  26.076  19.897  0.00  0.00    +0.002 C 
ATOM     23  C   UNL     1       5.727  26.033  18.426  0.00  0.00    +0.002 C 
ENDBRANCH  20  21
ENDBRANCH   5  20
TORSDOF 4
ENDMDL
MODEL 6
REMARK VINA RESULT:      -7.5     10.658     12.451
REMARK  Name = 4DYM_IYZ.pdb
REMARK  4 active torsions:
REMARK  status: ('A' for Active; 'I' for Inactive)
REMARK    1  A    between atoms: _11  and  _18
REMARK    2  A    between atoms: _11  and  _21
REMARK    3  A    between atoms: _12  and  _13
REMARK    4  A    between atoms: _14  and  _16
REMARK                            x       y       z     vdW  Elec       q    Type
REMARK                         _______ _______ _______ _____ _____    ______ ____
ROOT
ATOM      1  C   UNL     1      17.876  23.073  18.588  0.00  0.00    +0.104 A 
ATOM      2  N   UNL     1      16.937  23.445  19.551  0.00  0.00    -0.210 N 
ATOM      3  N   UNL     1      15.740  23.768  19.482  0.00  0.00    -0.147 NA
ATOM      4  C   UNL     1      14.981  24.071  20.563  0.00  0.00    +0.168 A 
ATOM      5  N   UNL     1      13.693  24.459  20.389  0.00  0.00    -0.219 NA
ATOM      6  C   UNL     1      15.544  23.987  21.844  0.00  0.00    +0.041 A 
ATOM      7  C   UNL     1      16.860  23.601  21.943  0.00  0.00    +0.042 A 
ATOM      8  C   UNL     1      17.578  23.328  20.783  0.00  0.00    +0.164 A 
ATOM      9  N   UNL     1      18.845  22.967  20.543  0.00  0.00    -0.223 NA
ATOM     10  C   UNL     1      19.024  22.777  19.229  0.00  0.00    +0.120 A 
ENDROOT
BRANCH   1  13
ATOM     11  C   UNL     1      17.085  24.199  15.150  0.00  0.00    +0.035 A 
ATOM     12  C   UNL     1      17.404  24.202  16.496  0.00  0.00    +0.004 A 
ATOM     13  C   UNL     1      17.573  23.022  17.227  0.00  0.00    +0.019 A 
ATOM     14  C   UNL     1      17.356  21.789  16.591  0.00  0.00    +0.002 A 
ATOM     15  C   UNL     1      17.018  21.773  15.224  0.00  0.00    +0.000 A 
ATOM     16  C   UNL     1      16.893  22.983  14.507  0.00  0.00    +0.003 A 
BRANCH  11  18
ATOM     17  C   UNL     1      17.687  25.727  13.049  0.00  0.00    +0.077 C 
ATOM     18  C   UNL     1      16.982  25.564  14.391  0.00  0.00    +0.173 C 
ATOM     19  O   UNL     1      16.297  26.498  14.816  0.00  0.00    -0.291 OA
ENDBRANCH  11  18
ENDBRANCH   1  13
BRANCH   5  20
ATOM     20  C   UNL     1      12.940  24.150  19.170  0.00  0.00    +0.114 C 
BRANCH  20  21
ATOM     21  C   UNL     1      12.533  25.415  18.384  0.00  0.00    +0.022 C 
ATOM     22  C   UNL     1      13.502  26.604  18.419  0.00  0.00    +0.002 C 
ATOM     23  C   UNL     1      13.441  25.738  17.172  0.00  0.00    +0.002 C 
ENDBRANCH  20  21
ENDBRANCH   5  20
TORSDOF 4
ENDMDL
MODEL 7
REMARK VINA RESULT:      -7.5      1.781      4.431
REMARK  Name = 4DYM_IYZ.pdb
REMARK  4 active torsions:
REMARK  status: ('A' for Active; 'I' for Inactive)
REMARK    1  A    between atoms: _11  and  _18
REMARK    2  A    between atoms: _11  and  _21
REMARK    3  A    between atoms: _12  and  _13
REMARK    4  A    between atoms: _14  and  _16
REMARK                            x       y       z     vdW  Elec       q    Type
REMARK                         _______ _______ _______ _____ _____    ______ ____
ROOT
ATOM      1  C   UNL     1       5.319  24.358  12.909  0.00  0.00    +0.104 A 
ATOM      2  N   UNL     1       5.384  25.752  12.902  0.00  0.00    -0.210 N 
ATOM      3  N   UNL     1       5.637  26.590  13.782  0.00  0.00    -0.147 NA
ATOM      4  C   UNL     1       5.678  27.926  13.557  0.00  0.00    +0.168 A 
ATOM      5  N   UNL     1       5.917  28.772  14.590  0.00  0.00    -0.219 NA
ATOM      6  C   UNL     1       5.464  28.412  12.259  0.00  0.00    +0.041 A 
ATOM      7  C   UNL     1       5.212  27.496  11.264  0.00  0.00    +0.042 A 
ATOM      8  C   UNL     1       5.165  26.143  11.581  0.00  0.00    +0.164 A 
ATOM      9  N   UNL     1       4.923  25.035  10.870  0.00  0.00    -0.223 NA
ATOM     10  C   UNL     1       5.048  23.954  11.653  0.00  0.00    +0.120 A 
ENDROOT
BRANCH   1  13
ATOM     11  C   UNL     1       6.411  23.470  16.335  0.00  0.00    +0.035 A 
ATOM     12  C   UNL     1       6.155  24.183  15.177  0.00  0.00    +0.004 A 
ATOM     13  C   UNL     1       5.540  23.605  14.063  0.00  0.00    +0.019 A 
ATOM     14  C   UNL     1       5.219  22.238  14.094  0.00  0.00    +0.002 A 
ATOM     15  C   UNL     1       5.486  21.497  15.261  0.00  0.00    +0.000 A 
ATOM     16  C   UNL     1       6.074  22.123  16.383  0.00  0.00    +0.003 A 
BRANCH  11  18
ATOM     17  C   UNL     1       6.254  25.320  18.248  0.00  0.00    +0.077 C 
ATOM     18  C   UNL     1       7.041  24.211  17.561  0.00  0.00    +0.173 C 
ATOM     19  O   UNL     1       8.136  23.886  18.028  0.00  0.00    -0.291 OA
ENDBRANCH  11  18
ENDBRANCH   1  13
BRANCH   5  20
ATOM     20  C   UNL     1       6.567  28.332  15.829  0.00  0.00    +0.114 C 
BRANCH  20  21
ATOM     21  C   UNL     1       8.107  28.333  15.726  0.00  0.00    +0.022 C 
ATOM     22  C   UNL     1       8.889  27.713  16.892  0.00  0.00    +0.002 C 
ATOM     23  C   UNL     1       8.744  26.928  15.599  0.00  0.00    +0.002 C 
ENDBRANCH  20  21
ENDBRANCH   5  20
TORSDOF 4
ENDMDL
MODEL 8
REMARK VINA RESULT:      -7.4      3.743      6.824
REMARK  Name = 4DYM_IYZ.pdb
REMARK  4 active torsions:
REMARK  status: ('A' for Active; 'I' for Inactive)
REMARK    1  A    between atoms: _11  and  _18
REMARK    2  A    between atoms: _11  and  _21
REMARK    3  A    between atoms: _12  and  _13
REMARK    4  A    between atoms: _14  and  _16
REMARK                            x       y       z     vdW  Elec       q    Type
REMARK                         _______ _______ _______ _____ _____    ______ ____
ROOT
ATOM      1  C   UNL     1       6.324  25.885  18.292  0.00  0.00    +0.104 A 
ATOM      2  N   UNL     1       7.160  24.821  18.633  0.00  0.00    -0.210 N 
ATOM      3  N   UNL     1       8.276  24.460  18.225  0.00  0.00    -0.147 NA
ATOM      4  C   UNL     1       8.946  23.390  18.720  0.00  0.00    +0.168 A 
ATOM      5  N   UNL     1      10.140  23.041  18.179  0.00  0.00    -0.219 NA
ATOM      6  C   UNL     1       8.387  22.656  19.775  0.00  0.00    +0.041 A 
ATOM      7  C   UNL     1       7.165  23.060  20.262  0.00  0.00    +0.042 A 
ATOM      8  C   UNL     1       6.532  24.156  19.685  0.00  0.00    +0.164 A 
ATOM      9  N   UNL     1       5.360  24.766  19.902  0.00  0.00    -0.223 NA
ATOM     10  C   UNL     1       5.242  25.828  19.093  0.00  0.00    +0.120 A 
ENDROOT
BRANCH   1  13
ATOM     11  C   UNL     1       6.477  27.535  14.980  0.00  0.00    +0.035 A 
ATOM     12  C   UNL     1       6.161  26.656  16.001  0.00  0.00    +0.004 A 
ATOM     13  C   UNL     1       6.654  26.808  17.300  0.00  0.00    +0.019 A 
ATOM     14  C   UNL     1       7.548  27.857  17.571  0.00  0.00    +0.002 A 
ATOM     15  C   UNL     1       7.887  28.753  16.539  0.00  0.00    +0.000 A 
ATOM     16  C   UNL     1       7.340  28.591  15.246  0.00  0.00    +0.003 A 
BRANCH  11  18
ATOM     17  C   UNL     1       5.482  28.550  12.724  0.00  0.00    +0.077 C 
ATOM     18  C   UNL     1       5.827  27.330  13.572  0.00  0.00    +0.173 C 
ATOM     19  O   UNL     1       5.636  26.208  13.097  0.00  0.00    -0.291 OA
ENDBRANCH  11  18
ENDBRANCH   1  13
BRANCH   5  20
ATOM     20  C   UNL     1      10.959  23.984  17.412  0.00  0.00    +0.114 C 
BRANCH  20  21
ATOM     21  C   UNL     1      11.512  25.135  18.280  0.00  0.00    +0.022 C 
ATOM     22  C   UNL     1      12.757  25.868  17.762  0.00  0.00    +0.002 C 
ATOM     23  C   UNL     1      11.400  26.538  17.635  0.00  0.00    +0.002 C 
ENDBRANCH  20  21
ENDBRANCH   5  20
TORSDOF 4
ENDMDL
MODEL 9
REMARK VINA RESULT:      -7.2      2.897      3.536
REMARK  Name = 4DYM_IYZ.pdb
REMARK  4 active torsions:
REMARK  status: ('A' for Active; 'I' for Inactive)
REMARK    1  A    between atoms: _11  and  _18
REMARK    2  A    between atoms: _11  and  _21
REMARK    3  A    between atoms: _12  and  _13
REMARK    4  A    between atoms: _14  and  _16
REMARK                            x       y       z     vdW  Elec       q    Type
REMARK                         _______ _______ _______ _____ _____    ______ ____
ROOT
ATOM      1  C   UNL     1       8.275  27.262  16.194  0.00  0.00    +0.104 A 
ATOM      2  N   UNL     1       7.338  26.664  15.350  0.00  0.00    -0.210 N 
ATOM      3  N   UNL     1       7.148  25.489  14.997  0.00  0.00    -0.147 NA
ATOM      4  C   UNL     1       6.141  25.106  14.174  0.00  0.00    +0.168 A 
ATOM      5  N   UNL     1       6.039  23.805  13.804  0.00  0.00    -0.219 NA
ATOM      6  C   UNL     1       5.227  26.063  13.713  0.00  0.00    +0.041 A 
ATOM      7  C   UNL     1       5.402  27.366  14.119  0.00  0.00    +0.042 A 
ATOM      8  C   UNL     1       6.475  27.682  14.947  0.00  0.00    +0.164 A 
ATOM      9  N   UNL     1       6.926  28.824  15.480  0.00  0.00    -0.223 NA
ATOM     10  C   UNL     1       7.987  28.576  16.259  0.00  0.00    +0.120 A 
ENDROOT
BRANCH   1  13
ATOM     11  C   UNL     1       9.949  24.552  18.083  0.00  0.00    +0.035 A 
ATOM     12  C   UNL     1       8.990  25.299  17.422  0.00  0.00    +0.004 A 
ATOM     13  C   UNL     1       9.279  26.534  16.832  0.00  0.00    +0.019 A 
ATOM     14  C   UNL     1      10.573  27.064  16.961  0.00  0.00    +0.002 A 
ATOM     15  C   UNL     1      11.555  26.320  17.641  0.00  0.00    +0.000 A 
ATOM     16  C   UNL     1      11.238  25.058  18.192  0.00  0.00    +0.003 A 
BRANCH  11  18
ATOM     17  C   UNL     1       8.600  22.262  17.868  0.00  0.00    +0.077 C 
ATOM     18  C   UNL     1       9.558  23.149  18.655  0.00  0.00    +0.173 C 
ATOM     19  O   UNL     1      10.046  22.710  19.699  0.00  0.00    -0.291 OA
ENDBRANCH  11  18
ENDBRANCH   1  13
BRANCH   5  20
ATOM     20  C   UNL     1       6.661  22.720  14.570  0.00  0.00    +0.114 C 
BRANCH  20  21
ATOM     21  C   UNL     1       5.734  21.496  14.727  0.00  0.00    +0.022 C 
ATOM     22  C   UNL     1       6.349  20.223  15.325  0.00  0.00    +0.002 C 
ATOM     23  C   UNL     1       5.451  21.088  16.194  0.00  0.00    +0.002 C 
ENDBRANCH  20  21
ENDBRANCH   5  20
TORSDOF 4
ENDMDL
