MODEL 1
REMARK VINA RESULT:      -7.0      0.000      0.000
REMARK  Name = 5OY6_B4E.pdb
REMARK  0 active torsions:
REMARK  status: ('A' for Active; 'I' for Inactive)
REMARK                            x       y       z     vdW  Elec       q    Type
REMARK                         _______ _______ _______ _____ _____    ______ ____
ROOT
ATOM      1 CL   UNL     1       6.280  28.456  14.365  0.00  0.00    -0.082 Cl
ATOM      2  C   UNL     1       6.849  27.612  15.789  0.00  0.00    +0.061 A 
ATOM      3  C   UNL     1       8.206  27.360  15.898  0.00  0.00    +0.012 A 
ATOM      4  C   UNL     1       8.708  26.687  17.005  0.00  0.00    +0.008 A 
ATOM      5  C   UNL     1      10.081  26.447  17.094  0.00  0.00    +0.057 A 
ATOM      6  C   UNL     1      10.714  25.348  17.730  0.00  0.00    +0.167 A 
ATOM      7  N   UNL     1      10.170  24.270  18.396  0.00  0.00    -0.210 NA
ATOM      8  C   UNL     1      10.991  23.342  18.920  0.00  0.00    +0.151 A 
ATOM      9  N   UNL     1      10.439  22.222  19.608  0.00  0.00    -0.218 NA
ATOM     10  C   UNL     1       9.051  21.925  19.474  0.00  0.00    +0.146 C 
ATOM     11  C   UNL     1       8.276  22.866  20.364  0.00  0.00    +0.166 C 
ATOM     12  O   UNL     1       7.110  23.241  19.632  0.00  0.00    -0.348 OA
ATOM     13  C   UNL     1       6.306  24.238  20.265  0.00  0.00    +0.189 C 
ATOM     14  C   UNL     1       5.396  24.735  19.170  0.00  0.00    +0.237 C 
ATOM     15  O   UNL     1       5.600  26.120  18.966  0.00  0.00    -0.473 OA
ATOM     16  C   UNL     1       6.474  26.518  17.917  0.00  0.00    +0.140 A 
ATOM     17  C   UNL     1      12.382  23.475  18.786  0.00  0.00    +0.057 A 
ATOM     18  C   UNL     1      12.901  24.575  18.114  0.00  0.00    +0.105 A 
ATOM     19  N   UNL     1      12.024  25.490  17.592  0.00  0.00    -0.211 N 
ATOM     20  N   UNL     1      12.293  26.660  16.906  0.00  0.00    -0.162 NA
ATOM     21  C   UNL     1      11.113  27.245  16.602  0.00  0.00    +0.124 A 
ATOM     22  C   UNL     1       7.837  26.269  18.020  0.00  0.00    +0.037 A 
ATOM     23  C   UNL     1       5.980  27.195  16.797  0.00  0.00    +0.048 A 
ENDROOT
TORSDOF 0
ENDMDL
MODEL 2
REMARK VINA RESULT:      -7.0      2.824      4.999
REMARK  Name = 5OY6_B4E.pdb
REMARK  0 active torsions:
REMARK  status: ('A' for Active; 'I' for Inactive)
REMARK                            x       y       z     vdW  Elec       q    Type
REMARK                         _______ _______ _______ _____ _____    ______ ____
ROOT
ATOM      1 CL   UNL     1      10.954  21.642  22.380  0.00  0.00    -0.082 Cl
ATOM      2  C   UNL     1      10.158  22.447  21.044  0.00  0.00    +0.061 A 
ATOM      3  C   UNL     1      10.952  23.033  20.071  0.00  0.00    +0.012 A 
ATOM      4  C   UNL     1      10.370  23.690  18.995  0.00  0.00    +0.008 A 
ATOM      5  C   UNL     1      11.190  24.270  18.024  0.00  0.00    +0.057 A 
ATOM      6  C   UNL     1      10.905  25.422  17.246  0.00  0.00    +0.167 A 
ATOM      7  N   UNL     1       9.795  26.241  17.239  0.00  0.00    -0.210 NA
ATOM      8  C   UNL     1       9.760  27.289  16.397  0.00  0.00    +0.151 A 
ATOM      9  N   UNL     1       8.619  28.144  16.385  0.00  0.00    -0.218 NA
ATOM     10  C   UNL     1       7.677  28.079  17.453  0.00  0.00    +0.146 C 
ATOM     11  C   UNL     1       6.791  26.877  17.233  0.00  0.00    +0.166 C 
ATOM     12  O   UNL     1       6.583  26.290  18.516  0.00  0.00    -0.348 OA
ATOM     13  C   UNL     1       5.866  25.055  18.497  0.00  0.00    +0.189 C 
ATOM     14  C   UNL     1       6.113  24.459  19.860  0.00  0.00    +0.237 C 
ATOM     15  O   UNL     1       6.756  23.206  19.728  0.00  0.00    -0.473 OA
ATOM     16  C   UNL     1       8.172  23.167  19.860  0.00  0.00    +0.140 A 
ATOM     17  C   UNL     1      10.843  27.541  15.539  0.00  0.00    +0.057 A 
ATOM     18  C   UNL     1      11.945  26.695  15.565  0.00  0.00    +0.105 A 
ATOM     19  N   UNL     1      11.937  25.644  16.445  0.00  0.00    -0.211 N 
ATOM     20  N   UNL     1      12.895  24.668  16.643  0.00  0.00    -0.162 NA
ATOM     21  C   UNL     1      12.444  23.829  17.603  0.00  0.00    +0.124 A 
ATOM     22  C   UNL     1       8.974  23.753  18.887  0.00  0.00    +0.037 A 
ATOM     23  C   UNL     1       8.769  22.510  20.941  0.00  0.00    +0.048 A 
ENDROOT
TORSDOF 0
ENDMDL
MODEL 3
REMARK VINA RESULT:      -6.8      2.083      3.388
REMARK  Name = 5OY6_B4E.pdb
REMARK  0 active torsions:
REMARK  status: ('A' for Active; 'I' for Inactive)
REMARK                            x       y       z     vdW  Elec       q    Type
REMARK                         _______ _______ _______ _____ _____    ______ ____
ROOT
ATOM      1 CL   UNL     1      12.361  27.871  14.376  0.00  0.00    -0.082 Cl
ATOM      2  C   UNL     1      11.208  27.248  15.537  0.00  0.00    +0.061 A 
ATOM      3  C   UNL     1      11.649  26.309  16.454  0.00  0.00    +0.012 A 
ATOM      4  C   UNL     1      10.772  25.778  17.391  0.00  0.00    +0.008 A 
ATOM      5  C   UNL     1      11.242  24.835  18.309  0.00  0.00    +0.057 A 
ATOM      6  C   UNL     1      10.502  23.776  18.895  0.00  0.00    +0.167 A 
ATOM      7  N   UNL     1       9.184  23.407  18.724  0.00  0.00    -0.210 NA
ATOM      8  C   UNL     1       8.707  22.348  19.401  0.00  0.00    +0.151 A 
ATOM      9  N   UNL     1       7.347  21.957  19.228  0.00  0.00    -0.218 NA
ATOM     10  C   UNL     1       6.596  22.476  18.132  0.00  0.00    +0.146 C 
ATOM     11  C   UNL     1       6.159  23.878  18.478  0.00  0.00    +0.166 C 
ATOM     12  O   UNL     1       6.296  24.648  17.285  0.00  0.00    -0.348 OA
ATOM     13  C   UNL     1       6.048  26.045  17.445  0.00  0.00    +0.189 C 
ATOM     14  C   UNL     1       6.620  26.672  16.199  0.00  0.00    +0.237 C 
ATOM     15  O   UNL     1       7.637  27.591  16.546  0.00  0.00    -0.473 OA
ATOM     16  C   UNL     1       8.987  27.142  16.496  0.00  0.00    +0.140 A 
ATOM     17  C   UNL     1       9.545  21.630  20.269  0.00  0.00    +0.057 A 
ATOM     18  C   UNL     1      10.868  22.028  20.425  0.00  0.00    +0.105 A 
ATOM     19  N   UNL     1      11.309  23.110  19.708  0.00  0.00    -0.211 N 
ATOM     20  N   UNL     1      12.559  23.701  19.706  0.00  0.00    -0.162 NA
ATOM     21  C   UNL     1      12.521  24.751  18.856  0.00  0.00    +0.124 A 
ATOM     22  C   UNL     1       9.437  26.201  17.414  0.00  0.00    +0.037 A 
ATOM     23  C   UNL     1       9.878  27.669  15.556  0.00  0.00    +0.048 A 
ENDROOT
TORSDOF 0
ENDMDL
MODEL 4
REMARK VINA RESULT:      -6.7      2.543      4.528
REMARK  Name = 5OY6_B4E.pdb
REMARK  0 active torsions:
REMARK  status: ('A' for Active; 'I' for Inactive)
REMARK                            x       y       z     vdW  Elec       q    Type
REMARK                         _______ _______ _______ _____ _____    ______ ____
ROOT
ATOM      1 CL   UNL     1       6.422  29.142  15.379  0.00  0.00    -0.082 Cl
ATOM      2  C   UNL     1       7.446  27.744  15.631  0.00  0.00    +0.061 A 
ATOM      3  C   UNL     1       7.053  26.811  16.576  0.00  0.00    +0.012 A 
ATOM      4  C   UNL     1       7.834  25.688  16.819  0.00  0.00    +0.008 A 
ATOM      5  C   UNL     1       7.415  24.759  17.774  0.00  0.00    +0.057 A 
ATOM      6  C   UNL     1       8.242  23.942  18.588  0.00  0.00    +0.167 A 
ATOM      7  N   UNL     1       9.617  23.852  18.654  0.00  0.00    -0.210 NA
ATOM      8  C   UNL     1      10.175  22.989  19.521  0.00  0.00    +0.151 A 
ATOM      9  N   UNL     1      11.595  22.891  19.600  0.00  0.00    -0.218 NA
ATOM     10  C   UNL     1      12.408  23.900  19.004  0.00  0.00    +0.146 C 
ATOM     11  C   UNL     1      12.463  23.649  17.517  0.00  0.00    +0.166 C 
ATOM     12  O   UNL     1      12.389  24.929  16.891  0.00  0.00    -0.348 OA
ATOM     13  C   UNL     1      12.297  24.890  15.466  0.00  0.00    +0.189 C 
ATOM     14  C   UNL     1      11.846  26.276  15.082  0.00  0.00    +0.237 C 
ATOM     15  O   UNL     1      10.610  26.208  14.399  0.00  0.00    -0.473 OA
ATOM     16  C   UNL     1       9.421  26.428  15.150  0.00  0.00    +0.140 A 
ATOM     17  C   UNL     1       9.364  22.194  20.346  0.00  0.00    +0.057 A 
ATOM     18  C   UNL     1       7.981  22.304  20.254  0.00  0.00    +0.105 A 
ATOM     19  N   UNL     1       7.460  23.202  19.359  0.00  0.00    -0.211 N 
ATOM     20  N   UNL     1       6.135  23.476  19.075  0.00  0.00    -0.162 NA
ATOM     21  C   UNL     1       6.104  24.423  18.110  0.00  0.00    +0.124 A 
ATOM     22  C   UNL     1       9.020  25.495  16.099  0.00  0.00    +0.037 A 
ATOM     23  C   UNL     1       8.628  27.555  14.915  0.00  0.00    +0.048 A 
ENDROOT
TORSDOF 0
ENDMDL
MODEL 5
REMARK VINA RESULT:      -6.3      2.894      4.912
REMARK  Name = 5OY6_B4E.pdb
REMARK  0 active torsions:
REMARK  status: ('A' for Active; 'I' for Inactive)
REMARK                            x       y       z     vdW  Elec       q    Type
REMARK                         _______ _______ _______ _____ _____    ______ ____
ROOT
ATOM      1 CL   UNL     1       8.579  22.520  21.987  0.00  0.00    -0.082 Cl
ATOM      2  C   UNL     1       8.664  23.023  20.312  0.00  0.00    +0.061 A 
ATOM      3  C   UNL     1       9.911  23.298  19.777  0.00  0.00    +0.012 A 
ATOM      4  C   UNL     1      10.032  23.707  18.455  0.00  0.00    +0.008 A 
ATOM      5  C   UNL     1      11.301  23.976  17.936  0.00  0.00    +0.057 A 
ATOM      6  C   UNL     1      11.626  24.917  16.925  0.00  0.00    +0.167 A 
ATOM      7  N   UNL     1      10.816  25.780  16.218  0.00  0.00    -0.210 NA
ATOM      8  C   UNL     1      11.368  26.589  15.296  0.00  0.00    +0.151 A 
ATOM      9  N   UNL     1      10.540  27.488  14.562  0.00  0.00    -0.218 NA
ATOM     10  C   UNL     1       9.211  27.750  15.009  0.00  0.00    +0.146 C 
ATOM     11  C   UNL     1       8.336  26.591  14.598  0.00  0.00    +0.166 C 
ATOM     12  O   UNL     1       7.448  26.353  15.689  0.00  0.00    -0.348 OA
ATOM     13  C   UNL     1       6.617  25.201  15.540  0.00  0.00    +0.189 C 
ATOM     14  C   UNL     1       6.083  24.943  16.925  0.00  0.00    +0.237 C 
ATOM     15  O   UNL     1       6.478  23.657  17.362  0.00  0.00    -0.473 OA
ATOM     16  C   UNL     1       7.632  23.559  18.188  0.00  0.00    +0.140 A 
ATOM     17  C   UNL     1      12.752  26.551  15.063  0.00  0.00    +0.057 A 
ATOM     18  C   UNL     1      13.542  25.667  15.788  0.00  0.00    +0.105 A 
ATOM     19  N   UNL     1      12.934  24.868  16.721  0.00  0.00    -0.211 N 
ATOM     20  N   UNL     1      13.495  23.909  17.543  0.00  0.00    -0.162 NA
ATOM     21  C   UNL     1      12.504  23.364  18.284  0.00  0.00    +0.124 A 
ATOM     22  C   UNL     1       8.887  23.833  17.657  0.00  0.00    +0.037 A 
ATOM     23  C   UNL     1       7.522  23.149  19.520  0.00  0.00    +0.048 A 
ENDROOT
TORSDOF 0
ENDMDL
MODEL 6
REMARK VINA RESULT:      -6.0      2.688      3.989
REMARK  Name = 5OY6_B4E.pdb
REMARK  0 active torsions:
REMARK  status: ('A' for Active; 'I' for Inactive)
REMARK                            x       y       z     vdW  Elec       q    Type
REMARK                         _______ _______ _______ _____ _____    ______ ____
ROOT
ATOM      1 CL   UNL     1      12.865  24.925  14.365  0.00  0.00    -0.082 Cl
ATOM      2  C   UNL     1      11.815  24.980  15.765  0.00  0.00    +0.061 A 
ATOM      3  C   UNL     1      12.342  24.604  16.989  0.00  0.00    +0.012 A 
ATOM      4  C   UNL     1      11.548  24.623  18.129  0.00  0.00    +0.008 A 
ATOM      5  C   UNL     1      12.103  24.243  19.353  0.00  0.00    +0.057 A 
ATOM      6  C   UNL     1      11.429  23.626  20.439  0.00  0.00    +0.167 A 
ATOM      7  N   UNL     1      10.109  23.251  20.570  0.00  0.00    -0.210 NA
ATOM      8  C   UNL     1       9.703  22.672  21.715  0.00  0.00    +0.151 A 
ATOM      9  N   UNL     1       8.341  22.278  21.860  0.00  0.00    -0.218 NA
ATOM     10  C   UNL     1       7.500  22.207  20.710  0.00  0.00    +0.146 C 
ATOM     11  C   UNL     1       7.066  23.608  20.353  0.00  0.00    +0.166 C 
ATOM     12  O   UNL     1       7.097  23.687  18.929  0.00  0.00    -0.348 OA
ATOM     13  C   UNL     1       6.838  24.988  18.399  0.00  0.00    +0.189 C 
ATOM     14  C   UNL     1       7.302  24.908  16.967  0.00  0.00    +0.237 C 
ATOM     15  O   UNL     1       8.327  25.855  16.739  0.00  0.00    -0.473 OA
ATOM     16  C   UNL     1       9.676  25.409  16.815  0.00  0.00    +0.140 A 
ATOM     17  C   UNL     1      10.618  22.456  22.758  0.00  0.00    +0.057 A 
ATOM     18  C   UNL     1      11.941  22.850  22.599  0.00  0.00    +0.105 A 
ATOM     19  N   UNL     1      12.307  23.429  21.411  0.00  0.00    -0.211 N 
ATOM     20  N   UNL     1      13.543  23.914  21.025  0.00  0.00    -0.162 NA
ATOM     21  C   UNL     1      13.422  24.411  19.773  0.00  0.00    +0.124 A 
ATOM     22  C   UNL     1      10.211  25.032  18.041  0.00  0.00    +0.037 A 
ATOM     23  C   UNL     1      10.483  25.385  15.674  0.00  0.00    +0.048 A 
ENDROOT
TORSDOF 0
ENDMDL
MODEL 7
REMARK VINA RESULT:      -5.4     15.616     16.251
REMARK  Name = 5OY6_B4E.pdb
REMARK  0 active torsions:
REMARK  status: ('A' for Active; 'I' for Inactive)
REMARK                            x       y       z     vdW  Elec       q    Type
REMARK                         _______ _______ _______ _____ _____    ______ ____
ROOT
ATOM      1 CL   UNL     1       7.268  37.007  26.566  0.00  0.00    -0.082 Cl
ATOM      2  C   UNL     1       7.330  36.517  28.246  0.00  0.00    +0.061 A 
ATOM      3  C   UNL     1       8.347  35.663  28.638  0.00  0.00    +0.012 A 
ATOM      4  C   UNL     1       8.436  35.239  29.958  0.00  0.00    +0.008 A 
ATOM      5  C   UNL     1       9.473  34.380  30.330  0.00  0.00    +0.057 A 
ATOM      6  C   UNL     1       9.437  33.395  31.350  0.00  0.00    +0.167 A 
ATOM      7  N   UNL     1       8.417  33.035  32.206  0.00  0.00    -0.210 NA
ATOM      8  C   UNL     1       8.629  32.053  33.101  0.00  0.00    +0.151 A 
ATOM      9  N   UNL     1       7.581  31.671  33.988  0.00  0.00    -0.218 NA
ATOM     10  C   UNL     1       6.244  32.096  33.726  0.00  0.00    +0.146 C 
ATOM     11  C   UNL     1       6.108  33.532  34.169  0.00  0.00    +0.166 C 
ATOM     12  O   UNL     1       5.306  34.181  33.184  0.00  0.00    -0.348 OA
ATOM     13  C   UNL     1       5.170  35.592  33.362  0.00  0.00    +0.189 C 
ATOM     14  C   UNL     1       4.641  36.087  32.041  0.00  0.00    +0.237 C 
ATOM     15  O   UNL     1       5.546  37.017  31.478  0.00  0.00    -0.473 OA
ATOM     16  C   UNL     1       6.475  36.542  30.511  0.00  0.00    +0.140 A 
ATOM     17  C   UNL     1       9.875  31.407  33.157  0.00  0.00    +0.057 A 
ATOM     18  C   UNL     1      10.885  31.795  32.285  0.00  0.00    +0.105 A 
ATOM     19  N   UNL     1      10.618  32.796  31.387  0.00  0.00    -0.211 N 
ATOM     20  N   UNL     1      11.454  33.362  30.442  0.00  0.00    -0.162 NA
ATOM     21  C   UNL     1      10.760  34.327  29.798  0.00  0.00    +0.124 A 
ATOM     22  C   UNL     1       7.499  35.685  30.898  0.00  0.00    +0.037 A 
ATOM     23  C   UNL     1       6.393  36.961  29.179  0.00  0.00    +0.048 A 
ENDROOT
TORSDOF 0
ENDMDL
MODEL 8
REMARK VINA RESULT:      -5.3     16.944     18.043
REMARK  Name = 5OY6_B4E.pdb
REMARK  0 active torsions:
REMARK  status: ('A' for Active; 'I' for Inactive)
REMARK                            x       y       z     vdW  Elec       q    Type
REMARK                         _______ _______ _______ _____ _____    ______ ____
ROOT
ATOM      1 CL   UNL     1       8.114  35.127  29.693  0.00  0.00    -0.082 Cl
ATOM      2  C   UNL     1       8.789  33.933  30.781  0.00  0.00    +0.061 A 
ATOM      3  C   UNL     1       8.074  33.613  31.923  0.00  0.00    +0.012 A 
ATOM      4  C   UNL     1       8.569  32.677  32.822  0.00  0.00    +0.008 A 
ATOM      5  C   UNL     1       7.828  32.369  33.964  0.00  0.00    +0.057 A 
ATOM      6  C   UNL     1       8.336  31.970  35.228  0.00  0.00    +0.167 A 
ATOM      7  N   UNL     1       9.638  31.791  35.648  0.00  0.00    -0.210 NA
ATOM      8  C   UNL     1       9.869  31.404  36.915  0.00  0.00    +0.151 A 
ATOM      9  N   UNL     1      11.211  31.219  37.361  0.00  0.00    -0.218 NA
ATOM     10  C   UNL     1      12.290  31.733  36.584  0.00  0.00    +0.146 C 
ATOM     11  C   UNL     1      12.534  30.792  35.429  0.00  0.00    +0.166 C 
ATOM     12  O   UNL     1      12.814  31.611  34.295  0.00  0.00    -0.348 OA
ATOM     13  C   UNL     1      12.948  30.900  33.064  0.00  0.00    +0.189 C 
ATOM     14  C   UNL     1      12.845  31.965  32.003  0.00  0.00    +0.237 C 
ATOM     15  O   UNL     1      11.746  31.696  31.155  0.00  0.00    -0.473 OA
ATOM     16  C   UNL     1      10.518  32.364  31.424  0.00  0.00    +0.140 A 
ATOM     17  C   UNL     1       8.795  31.188  37.793  0.00  0.00    +0.057 A 
ATOM     18  C   UNL     1       7.494  31.371  37.340  0.00  0.00    +0.105 A 
ATOM     19  N   UNL     1       7.311  31.773  36.042  0.00  0.00    -0.211 N 
ATOM     20  N   UNL     1       6.129  32.002  35.362  0.00  0.00    -0.162 NA
ATOM     21  C   UNL     1       6.440  32.365  34.097  0.00  0.00    +0.124 A 
ATOM     22  C   UNL     1       9.794  32.047  32.567  0.00  0.00    +0.037 A 
ATOM     23  C   UNL     1      10.010  33.309  30.526  0.00  0.00    +0.048 A 
ENDROOT
TORSDOF 0
ENDMDL
MODEL 9
REMARK VINA RESULT:      -5.2     15.780     16.539
REMARK  Name = 5OY6_B4E.pdb
REMARK  0 active torsions:
REMARK  status: ('A' for Active; 'I' for Inactive)
REMARK                            x       y       z     vdW  Elec       q    Type
REMARK                         _______ _______ _______ _____ _____    ______ ____
ROOT
ATOM      1 CL   UNL     1      11.759  34.609  27.165  0.00  0.00    -0.082 Cl
ATOM      2  C   UNL     1      10.948  34.628  28.717  0.00  0.00    +0.061 A 
ATOM      3  C   UNL     1      11.362  33.721  29.678  0.00  0.00    +0.012 A 
ATOM      4  C   UNL     1      10.746  33.690  30.923  0.00  0.00    +0.008 A 
ATOM      5  C   UNL     1      11.183  32.769  31.878  0.00  0.00    +0.057 A 
ATOM      6  C   UNL     1      10.400  32.156  32.891  0.00  0.00    +0.167 A 
ATOM      7  N   UNL     1       9.061  32.296  33.189  0.00  0.00    -0.210 NA
ATOM      8  C   UNL     1       8.541  31.595  34.213  0.00  0.00    +0.151 A 
ATOM      9  N   UNL     1       7.157  31.730  34.527  0.00  0.00    -0.218 NA
ATOM     10  C   UNL     1       6.277  32.347  33.589  0.00  0.00    +0.146 C 
ATOM     11  C   UNL     1       6.454  33.843  33.684  0.00  0.00    +0.166 C 
ATOM     12  O   UNL     1       6.402  34.339  32.348  0.00  0.00    -0.348 OA
ATOM     13  C   UNL     1       6.681  35.734  32.219  0.00  0.00    +0.189 C 
ATOM     14  C   UNL     1       6.949  35.928  30.749  0.00  0.00    +0.237 C 
ATOM     15  O   UNL     1       8.258  36.429  30.560  0.00  0.00    -0.473 OA
ATOM     16  C   UNL     1       9.289  35.499  30.250  0.00  0.00    +0.140 A 
ATOM     17  C   UNL     1       9.357  30.734  34.963  0.00  0.00    +0.057 A 
ATOM     18  C   UNL     1      10.704  30.617  34.643  0.00  0.00    +0.105 A 
ATOM     19  N   UNL     1      11.185  31.347  33.586  0.00  0.00    -0.211 N 
ATOM     20  N   UNL     1      12.474  31.413  33.091  0.00  0.00    -0.162 NA
ATOM     21  C   UNL     1      12.476  32.278  32.052  0.00  0.00    +0.124 A 
ATOM     22  C   UNL     1       9.709  34.587  31.211  0.00  0.00    +0.037 A 
ATOM     23  C   UNL     1       9.915  35.520  29.000  0.00  0.00    +0.048 A 
ENDROOT
TORSDOF 0
ENDMDL
