MODEL 1
REMARK VINA RESULT:      -9.1      0.000      0.000
REMARK  Name = 3Q4U_LDN.pdb
REMARK  3 active torsions:
REMARK  status: ('A' for Active; 'I' for Inactive)
REMARK    1  A    between atoms: _18  and  _19
REMARK    2  A    between atoms: _20  and  _30
REMARK    3  A    between atoms: _21  and  _22
REMARK                            x       y       z     vdW  Elec       q    Type
REMARK                         _______ _______ _______ _____ _____    ______ ____
ROOT
ATOM      1  C   UNL     1       5.920  21.716  15.485  0.00  0.00    +0.057 A 
ATOM      2  C   UNL     1       7.065  22.222  16.072  0.00  0.00    +0.165 A 
ATOM      3  N   UNL     1       7.107  21.679  17.390  0.00  0.00    -0.211 N 
ATOM      4  N   UNL     1       6.106  20.966  17.558  0.00  0.00    -0.162 NA
ATOM      5  C   UNL     1       8.143  21.990  18.236  0.00  0.00    +0.104 A 
ATOM      6  C   UNL     1       9.130  22.859  17.803  0.00  0.00    +0.038 A 
ATOM      7  C   UNL     1       9.078  23.347  16.493  0.00  0.00    +0.102 A 
ATOM      8  N   UNL     1       8.033  23.073  15.653  0.00  0.00    -0.225 NA
ATOM      9  C   UNL     1       5.367  20.967  16.422  0.00  0.00    +0.124 A 
ENDROOT
BRANCH   1  14
ATOM     10  C   UNL     1       5.778  19.359  10.819  0.00  0.00    +0.002 A 
ATOM     11  C   UNL     1       5.115  20.567  10.701  0.00  0.00    +0.019 A 
ATOM     12  C   UNL     1       4.975  21.436  11.779  0.00  0.00    +0.081 A 
ATOM     13  C   UNL     1       5.528  21.079  13.031  0.00  0.00    +0.018 A 
ATOM     14  C   UNL     1       5.408  21.964  14.143  0.00  0.00    +0.008 A 
ATOM     15  C   UNL     1       4.662  23.110  13.927  0.00  0.00    +0.021 A 
ATOM     16  C   UNL     1       4.142  23.426  12.656  0.00  0.00    +0.099 A 
ATOM     17  C   UNL     1       6.212  19.874  13.116  0.00  0.00    +0.001 A 
ATOM     18  N   UNL     1       4.287  22.578  11.633  0.00  0.00    -0.244 NA
ATOM     19  C   UNL     1       6.336  18.996  12.039  0.00  0.00    +0.000 A 
ENDBRANCH   1  14
BRANCH   6  20
ATOM     20  C   UNL     1      10.211  23.112  18.672  0.00  0.00    +0.003 A 
ATOM     21  C   UNL     1      10.141  22.825  20.044  0.00  0.00    +0.001 A 
ATOM     22  C   UNL     1      11.279  23.041  20.842  0.00  0.00    +0.015 A 
ATOM     23  C   UNL     1      12.453  23.537  20.315  0.00  0.00    +0.048 A 
ATOM     24  C   UNL     1      12.516  23.813  18.962  0.00  0.00    +0.015 A 
ATOM     25  C   UNL     1      11.411  23.566  18.149  0.00  0.00    +0.001 A 
BRANCH  23  26
ATOM     26  N   UNL     1      13.644  23.743  21.082  0.00  0.00    -0.305 N 
ATOM     27  C   UNL     1      14.968  23.531  20.480  0.00  0.00    +0.110 C 
ATOM     28  C   UNL     1      16.155  23.968  21.382  0.00  0.00    +0.110 C 
ATOM     29  N   UNL     1      16.012  23.533  22.793  0.00  0.00    -0.214 NA
ATOM     30  C   UNL     1      14.681  22.954  23.084  0.00  0.00    +0.110 C 
ATOM     31  C   UNL     1      13.578  23.852  22.543  0.00  0.00    +0.110 C 
ENDBRANCH  23  26
ENDBRANCH   6  20
TORSDOF 3
ENDMDL
MODEL 2
REMARK VINA RESULT:      -8.5      3.723     10.648
REMARK  Name = 3Q4U_LDN.pdb
REMARK  3 active torsions:
REMARK  status: ('A' for Active; 'I' for Inactive)
REMARK    1  A    between atoms: _18  and  _19
REMARK    2  A    between atoms: _20  and  _30
REMARK    3  A    between atoms: _21  and  _22
REMARK                            x       y       z     vdW  Elec       q    Type
REMARK                         _______ _______ _______ _____ _____    ______ ____
ROOT
ATOM      1  C   UNL     1       6.859  24.145  17.404  0.00  0.00    +0.057 A 
ATOM      2  C   UNL     1       6.490  23.157  16.510  0.00  0.00    +0.165 A 
ATOM      3  N   UNL     1       6.832  23.646  15.215  0.00  0.00    -0.211 N 
ATOM      4  N   UNL     1       7.319  24.780  15.335  0.00  0.00    -0.162 NA
ATOM      5  C   UNL     1       6.596  22.880  14.100  0.00  0.00    +0.104 A 
ATOM      6  C   UNL     1       5.996  21.642  14.246  0.00  0.00    +0.038 A 
ATOM      7  C   UNL     1       5.703  21.176  15.533  0.00  0.00    +0.102 A 
ATOM      8  N   UNL     1       5.902  21.944  16.649  0.00  0.00    -0.225 NA
ATOM      9  C   UNL     1       7.349  25.112  16.649  0.00  0.00    +0.124 A 
ENDROOT
BRANCH   1  14
ATOM     10  C   UNL     1       8.776  21.606  21.554  0.00  0.00    +0.002 A 
ATOM     11  C   UNL     1       7.885  22.558  22.017  0.00  0.00    +0.019 A 
ATOM     12  C   UNL     1       7.204  23.409  21.151  0.00  0.00    +0.081 A 
ATOM     13  C   UNL     1       7.422  23.296  19.758  0.00  0.00    +0.018 A 
ATOM     14  C   UNL     1       6.721  24.149  18.855  0.00  0.00    +0.008 A 
ATOM     15  C   UNL     1       5.912  25.110  19.435  0.00  0.00    +0.021 A 
ATOM     16  C   UNL     1       5.718  25.173  20.829  0.00  0.00    +0.099 A 
ATOM     17  C   UNL     1       8.300  22.314  19.317  0.00  0.00    +0.001 A 
ATOM     18  N   UNL     1       6.382  24.347  21.644  0.00  0.00    -0.244 NA
ATOM     19  C   UNL     1       8.995  21.475  20.188  0.00  0.00    +0.000 A 
ENDBRANCH   1  14
BRANCH   6  20
ATOM     20  C   UNL     1       5.820  20.855  13.090  0.00  0.00    +0.003 A 
ATOM     21  C   UNL     1       6.382  19.575  12.973  0.00  0.00    +0.001 A 
ATOM     22  C   UNL     1       6.113  18.816  11.820  0.00  0.00    +0.015 A 
ATOM     23  C   UNL     1       5.324  19.303  10.798  0.00  0.00    +0.048 A 
ATOM     24  C   UNL     1       4.770  20.564  10.922  0.00  0.00    +0.015 A 
ATOM     25  C   UNL     1       4.993  21.311  12.077  0.00  0.00    +0.001 A 
BRANCH  23  26
ATOM     26  N   UNL     1       4.998  18.556   9.620  0.00  0.00    -0.305 N 
ATOM     27  C   UNL     1       5.075  19.182   8.293  0.00  0.00    +0.110 C 
ATOM     28  C   UNL     1       4.866  18.195   7.111  0.00  0.00    +0.110 C 
ATOM     29  N   UNL     1       3.732  17.261   7.319  0.00  0.00    -0.214 NA
ATOM     30  C   UNL     1       3.171  17.334   8.687  0.00  0.00    +0.110 C 
ATOM     31  C   UNL     1       4.283  17.280   9.724  0.00  0.00    +0.110 C 
ENDBRANCH  23  26
ENDBRANCH   6  20
TORSDOF 3
ENDMDL
MODEL 3
REMARK VINA RESULT:      -8.3      3.215     10.942
REMARK  Name = 3Q4U_LDN.pdb
REMARK  3 active torsions:
REMARK  status: ('A' for Active; 'I' for Inactive)
REMARK    1  A    between atoms: _18  and  _19
REMARK    2  A    between atoms: _20  and  _30
REMARK    3  A    between atoms: _21  and  _22
REMARK                            x       y       z     vdW  Elec       q    Type
REMARK                         _______ _______ _______ _____ _____    ______ ____
ROOT
ATOM      1  C   UNL     1       7.984  23.341  17.097  0.00  0.00    +0.057 A 
ATOM      2  C   UNL     1       7.352  22.504  16.195  0.00  0.00    +0.165 A 
ATOM      3  N   UNL     1       7.453  23.143  14.924  0.00  0.00    -0.211 N 
ATOM      4  N   UNL     1       8.047  24.221  15.068  0.00  0.00    -0.162 NA
ATOM      5  C   UNL     1       6.922  22.549  13.805  0.00  0.00    +0.104 A 
ATOM      6  C   UNL     1       6.264  21.338  13.931  0.00  0.00    +0.038 A 
ATOM      7  C   UNL     1       6.212  20.721  15.186  0.00  0.00    +0.102 A 
ATOM      8  N   UNL     1       6.706  21.318  16.314  0.00  0.00    -0.225 NA
ATOM      9  C   UNL     1       8.382  24.371  16.373  0.00  0.00    +0.124 A 
ENDROOT
BRANCH   1  14
ATOM     10  C   UNL     1       5.757  24.893  21.567  0.00  0.00    +0.002 A 
ATOM     11  C   UNL     1       6.810  24.055  21.889  0.00  0.00    +0.019 A 
ATOM     12  C   UNL     1       7.607  23.467  20.910  0.00  0.00    +0.081 A 
ATOM     13  C   UNL     1       7.339  23.736  19.547  0.00  0.00    +0.018 A 
ATOM     14  C   UNL     1       8.155  23.156  18.532  0.00  0.00    +0.008 A 
ATOM     15  C   UNL     1       9.132  22.278  18.968  0.00  0.00    +0.021 A 
ATOM     16  C   UNL     1       9.366  22.053  20.340  0.00  0.00    +0.099 A 
ATOM     17  C   UNL     1       6.295  24.603  19.252  0.00  0.00    +0.001 A 
ATOM     18  N   UNL     1       8.590  22.626  21.264  0.00  0.00    -0.244 NA
ATOM     19  C   UNL     1       5.486  25.175  20.233  0.00  0.00    +0.000 A 
ENDBRANCH   1  14
BRANCH   6  20
ATOM     20  C   UNL     1       5.782  20.725  12.757  0.00  0.00    +0.003 A 
ATOM     21  C   UNL     1       4.996  21.423  11.827  0.00  0.00    +0.001 A 
ATOM     22  C   UNL     1       4.604  20.772  10.644  0.00  0.00    +0.015 A 
ATOM     23  C   UNL     1       4.960  19.465  10.382  0.00  0.00    +0.048 A 
ATOM     24  C   UNL     1       5.738  18.785  11.300  0.00  0.00    +0.015 A 
ATOM     25  C   UNL     1       6.170  19.430  12.458  0.00  0.00    +0.001 A 
BRANCH  23  26
ATOM     26  N   UNL     1       4.609  18.772   9.178  0.00  0.00    -0.305 N 
ATOM     27  C   UNL     1       4.262  17.344   9.212  0.00  0.00    +0.110 C 
ATOM     28  C   UNL     1       3.735  16.785   7.862  0.00  0.00    +0.110 C 
ATOM     29  N   UNL     1       4.531  17.228   6.691  0.00  0.00    -0.214 NA
ATOM     30  C   UNL     1       5.531  18.264   7.035  0.00  0.00    +0.110 C 
ATOM     31  C   UNL     1       4.895  19.366   7.868  0.00  0.00    +0.110 C 
ENDBRANCH  23  26
ENDBRANCH   6  20
TORSDOF 3
ENDMDL
MODEL 4
REMARK VINA RESULT:      -8.0      3.653     10.883
REMARK  Name = 3Q4U_LDN.pdb
REMARK  3 active torsions:
REMARK  status: ('A' for Active; 'I' for Inactive)
REMARK    1  A    between atoms: _18  and  _19
REMARK    2  A    between atoms: _20  and  _30
REMARK    3  A    between atoms: _21  and  _22
REMARK                            x       y       z     vdW  Elec       q    Type
REMARK                         _______ _______ _______ _____ _____    ______ ____
ROOT
ATOM      1  C   UNL     1       6.553  21.079  17.560  0.00  0.00    +0.057 A 
ATOM      2  C   UNL     1       6.480  21.275  16.193  0.00  0.00    +0.165 A 
ATOM      3  N   UNL     1       6.406  19.976  15.610  0.00  0.00    -0.211 N 
ATOM      4  N   UNL     1       6.451  19.131  16.517  0.00  0.00    -0.162 NA
ATOM      5  C   UNL     1       6.313  19.831  14.247  0.00  0.00    +0.104 A 
ATOM      6  C   UNL     1       6.320  20.960  13.447  0.00  0.00    +0.038 A 
ATOM      7  C   UNL     1       6.359  22.221  14.051  0.00  0.00    +0.102 A 
ATOM      8  N   UNL     1       6.487  22.377  15.405  0.00  0.00    -0.225 NA
ATOM      9  C   UNL     1       6.541  19.767  17.710  0.00  0.00    +0.124 A 
ENDROOT
BRANCH   1  14
ATOM     10  C   UNL     1       9.502  22.126  21.750  0.00  0.00    +0.002 A 
ATOM     11  C   UNL     1       8.554  23.127  21.641  0.00  0.00    +0.019 A 
ATOM     12  C   UNL     1       7.612  23.138  20.616  0.00  0.00    +0.081 A 
ATOM     13  C   UNL     1       7.619  22.096  19.660  0.00  0.00    +0.018 A 
ATOM     14  C   UNL     1       6.651  22.083  18.612  0.00  0.00    +0.008 A 
ATOM     15  C   UNL     1       5.799  23.173  18.561  0.00  0.00    +0.021 A 
ATOM     16  C   UNL     1       5.825  24.180  19.546  0.00  0.00    +0.099 A 
ATOM     17  C   UNL     1       8.563  21.089  19.807  0.00  0.00    +0.001 A 
ATOM     18  N   UNL     1       6.738  24.151  20.522  0.00  0.00    -0.244 NA
ATOM     19  C   UNL     1       9.517  21.089  20.824  0.00  0.00    +0.000 A 
ENDBRANCH   1  14
BRANCH   6  20
ATOM     20  C   UNL     1       6.164  20.782  12.057  0.00  0.00    +0.003 A 
ATOM     21  C   UNL     1       7.262  20.562  11.211  0.00  0.00    +0.001 A 
ATOM     22  C   UNL     1       7.030  20.326   9.844  0.00  0.00    +0.015 A 
ATOM     23  C   UNL     1       5.756  20.319   9.314  0.00  0.00    +0.048 A 
ATOM     24  C   UNL     1       4.679  20.532  10.154  0.00  0.00    +0.015 A 
ATOM     25  C   UNL     1       4.890  20.726  11.518  0.00  0.00    +0.001 A 
BRANCH  23  26
ATOM     26  N   UNL     1       5.470  20.054   7.936  0.00  0.00    -0.305 N 
ATOM     27  C   UNL     1       4.573  20.935   7.175  0.00  0.00    +0.110 C 
ATOM     28  C   UNL     1       4.507  20.618   5.656  0.00  0.00    +0.110 C 
ATOM     29  N   UNL     1       4.389  19.169   5.363  0.00  0.00    -0.214 NA
ATOM     30  C   UNL     1       4.560  18.323   6.565  0.00  0.00    +0.110 C 
ATOM     31  C   UNL     1       5.793  18.750   7.347  0.00  0.00    +0.110 C 
ENDBRANCH  23  26
ENDBRANCH   6  20
TORSDOF 3
ENDMDL
MODEL 5
REMARK VINA RESULT:      -8.0      3.114      5.903
REMARK  Name = 3Q4U_LDN.pdb
REMARK  3 active torsions:
REMARK  status: ('A' for Active; 'I' for Inactive)
REMARK    1  A    between atoms: _18  and  _19
REMARK    2  A    between atoms: _20  and  _30
REMARK    3  A    between atoms: _21  and  _22
REMARK                            x       y       z     vdW  Elec       q    Type
REMARK                         _______ _______ _______ _____ _____    ______ ____
ROOT
ATOM      1  C   UNL     1       4.820  20.415  10.444  0.00  0.00    +0.057 A 
ATOM      2  C   UNL     1       5.329  20.405  11.730  0.00  0.00    +0.165 A 
ATOM      3  N   UNL     1       4.939  21.643  12.321  0.00  0.00    -0.211 N 
ATOM      4  N   UNL     1       4.302  22.299  11.483  0.00  0.00    -0.162 NA
ATOM      5  C   UNL     1       5.289  21.934  13.617  0.00  0.00    +0.104 A 
ATOM      6  C   UNL     1       6.050  21.025  14.331  0.00  0.00    +0.038 A 
ATOM      7  C   UNL     1       6.388  19.805  13.735  0.00  0.00    +0.102 A 
ATOM      8  N   UNL     1       6.075  19.518  12.433  0.00  0.00    -0.225 NA
ATOM      9  C   UNL     1       4.213  21.583  10.336  0.00  0.00    +0.124 A 
ENDROOT
BRANCH   1  14
ATOM     10  C   UNL     1       3.001  15.618   9.431  0.00  0.00    +0.002 A 
ATOM     11  C   UNL     1       3.830  15.984   8.386  0.00  0.00    +0.019 A 
ATOM     12  C   UNL     1       4.472  17.219   8.356  0.00  0.00    +0.081 A 
ATOM     13  C   UNL     1       4.278  18.126   9.424  0.00  0.00    +0.018 A 
ATOM     14  C   UNL     1       4.940  19.389   9.417  0.00  0.00    +0.008 A 
ATOM     15  C   UNL     1       5.686  19.676   8.287  0.00  0.00    +0.021 A 
ATOM     16  C   UNL     1       5.858  18.732   7.255  0.00  0.00    +0.099 A 
ATOM     17  C   UNL     1       3.463  17.723  10.474  0.00  0.00    +0.001 A 
ATOM     18  N   UNL     1       5.233  17.552   7.302  0.00  0.00    -0.244 NA
ATOM     19  C   UNL     1       2.806  16.493  10.493  0.00  0.00    +0.000 A 
ENDBRANCH   1  14
BRANCH   6  20
ATOM     20  C   UNL     1       6.343  21.326  15.676  0.00  0.00    +0.003 A 
ATOM     21  C   UNL     1       5.621  20.757  16.737  0.00  0.00    +0.001 A 
ATOM     22  C   UNL     1       6.009  21.048  18.057  0.00  0.00    +0.015 A 
ATOM     23  C   UNL     1       7.068  21.887  18.334  0.00  0.00    +0.048 A 
ATOM     24  C   UNL     1       7.778  22.441  17.285  0.00  0.00    +0.015 A 
ATOM     25  C   UNL     1       7.432  22.129  15.971  0.00  0.00    +0.001 A 
BRANCH  23  26
ATOM     26  N   UNL     1       7.518  22.188  19.661  0.00  0.00    -0.305 N 
ATOM     27  C   UNL     1       6.928  23.303  20.415  0.00  0.00    +0.110 C 
ATOM     28  C   UNL     1       7.393  23.387  21.895  0.00  0.00    +0.110 C 
ATOM     29  N   UNL     1       8.854  23.195  22.063  0.00  0.00    -0.214 NA
ATOM     30  C   UNL     1       9.526  22.767  20.816  0.00  0.00    +0.110 C 
ATOM     31  C   UNL     1       8.769  21.617  20.169  0.00  0.00    +0.110 C 
ENDBRANCH  23  26
ENDBRANCH   6  20
TORSDOF 3
ENDMDL
MODEL 6
REMARK VINA RESULT:      -7.9      5.986      7.340
REMARK  Name = 3Q4U_LDN.pdb
REMARK  3 active torsions:
REMARK  status: ('A' for Active; 'I' for Inactive)
REMARK    1  A    between atoms: _18  and  _19
REMARK    2  A    between atoms: _20  and  _30
REMARK    3  A    between atoms: _21  and  _22
REMARK                            x       y       z     vdW  Elec       q    Type
REMARK                         _______ _______ _______ _____ _____    ______ ____
ROOT
ATOM      1  C   UNL     1       6.275  20.066  13.004  0.00  0.00    +0.057 A 
ATOM      2  C   UNL     1       6.524  19.112  13.975  0.00  0.00    +0.165 A 
ATOM      3  N   UNL     1       6.366  19.773  15.229  0.00  0.00    -0.211 N 
ATOM      4  N   UNL     1       6.083  20.962  15.018  0.00  0.00    -0.162 NA
ATOM      5  C   UNL     1       6.540  19.082  16.403  0.00  0.00    +0.104 A 
ATOM      6  C   UNL     1       6.898  17.746  16.354  0.00  0.00    +0.038 A 
ATOM      7  C   UNL     1       7.012  17.119  15.109  0.00  0.00    +0.102 A 
ATOM      8  N   UNL     1       6.876  17.804  13.931  0.00  0.00    -0.225 NA
ATOM      9  C   UNL     1       6.021  21.171  13.681  0.00  0.00    +0.124 A 
ENDROOT
BRANCH   1  14
ATOM     10  C   UNL     1       3.322  18.064   9.181  0.00  0.00    +0.002 A 
ATOM     11  C   UNL     1       4.457  18.601   8.600  0.00  0.00    +0.019 A 
ATOM     12  C   UNL     1       5.448  19.219   9.358  0.00  0.00    +0.081 A 
ATOM     13  C   UNL     1       5.297  19.296  10.762  0.00  0.00    +0.018 A 
ATOM     14  C   UNL     1       6.310  19.910  11.556  0.00  0.00    +0.008 A 
ATOM     15  C   UNL     1       7.364  20.477  10.860  0.00  0.00    +0.021 A 
ATOM     16  C   UNL     1       7.474  20.361   9.460  0.00  0.00    +0.099 A 
ATOM     17  C   UNL     1       4.163  18.725  11.323  0.00  0.00    +0.001 A 
ATOM     18  N   UNL     1       6.511  19.765   8.750  0.00  0.00    -0.244 NA
ATOM     19  C   UNL     1       3.162  18.123  10.561  0.00  0.00    +0.000 A 
ENDBRANCH   1  14
BRANCH   6  20
ATOM     20  C   UNL     1       7.012  17.050  17.574  0.00  0.00    +0.003 A 
ATOM     21  C   UNL     1       7.206  17.719  18.793  0.00  0.00    +0.001 A 
ATOM     22  C   UNL     1       7.244  16.968  19.982  0.00  0.00    +0.015 A 
ATOM     23  C   UNL     1       7.110  15.596  19.978  0.00  0.00    +0.048 A 
ATOM     24  C   UNL     1       6.914  14.944  18.775  0.00  0.00    +0.015 A 
ATOM     25  C   UNL     1       6.832  15.677  17.593  0.00  0.00    +0.001 A 
BRANCH  23  26
ATOM     26  N   UNL     1       7.112  14.794  21.166  0.00  0.00    -0.305 N 
ATOM     27  C   UNL     1       8.107  15.025  22.222  0.00  0.00    +0.110 C 
ATOM     28  C   UNL     1       7.866  14.198  23.515  0.00  0.00    +0.110 C 
ATOM     29  N   UNL     1       7.523  12.780  23.251  0.00  0.00    -0.214 NA
ATOM     30  C   UNL     1       7.288  12.503  21.816  0.00  0.00    +0.110 C 
ATOM     31  C   UNL     1       6.351  13.541  21.218  0.00  0.00    +0.110 C 
ENDBRANCH  23  26
ENDBRANCH   6  20
TORSDOF 3
ENDMDL
MODEL 7
REMARK VINA RESULT:      -7.9      3.975     10.931
REMARK  Name = 3Q4U_LDN.pdb
REMARK  3 active torsions:
REMARK  status: ('A' for Active; 'I' for Inactive)
REMARK    1  A    between atoms: _18  and  _19
REMARK    2  A    between atoms: _20  and  _30
REMARK    3  A    between atoms: _21  and  _22
REMARK                            x       y       z     vdW  Elec       q    Type
REMARK                         _______ _______ _______ _____ _____    ______ ____
ROOT
ATOM      1  C   UNL     1       7.338  23.958  16.391  0.00  0.00    +0.057 A 
ATOM      2  C   UNL     1       6.757  23.260  15.347  0.00  0.00    +0.165 A 
ATOM      3  N   UNL     1       7.576  23.502  14.205  0.00  0.00    -0.211 N 
ATOM      4  N   UNL     1       8.503  24.258  14.533  0.00  0.00    -0.162 NA
ATOM      5  C   UNL     1       7.264  22.931  12.995  0.00  0.00    +0.104 A 
ATOM      6  C   UNL     1       6.131  22.144  12.892  0.00  0.00    +0.038 A 
ATOM      7  C   UNL     1       5.367  21.899  14.038  0.00  0.00    +0.102 A 
ATOM      8  N   UNL     1       5.648  22.489  15.241  0.00  0.00    -0.225 NA
ATOM      9  C   UNL     1       8.387  24.553  15.851  0.00  0.00    +0.124 A 
ENDROOT
BRANCH   1  14
ATOM     10  C   UNL     1       8.336  21.724  21.013  0.00  0.00    +0.002 A 
ATOM     11  C   UNL     1       7.360  22.685  21.210  0.00  0.00    +0.019 A 
ATOM     12  C   UNL     1       6.876  23.466  20.165  0.00  0.00    +0.081 A 
ATOM     13  C   UNL     1       7.388  23.270  18.861  0.00  0.00    +0.018 A 
ATOM     14  C   UNL     1       6.891  24.050  17.775  0.00  0.00    +0.008 A 
ATOM     15  C   UNL     1       5.971  25.030  18.104  0.00  0.00    +0.021 A 
ATOM     16  C   UNL     1       5.483  25.175  19.417  0.00  0.00    +0.099 A 
ATOM     17  C   UNL     1       8.346  22.281  18.684  0.00  0.00    +0.001 A 
ATOM     18  N   UNL     1       5.961  24.416  20.408  0.00  0.00    -0.244 NA
ATOM     19  C   UNL     1       8.844  21.513  19.736  0.00  0.00    +0.000 A 
ENDBRANCH   1  14
BRANCH   6  20
ATOM     20  C   UNL     1       5.870  21.525  11.653  0.00  0.00    +0.003 A 
ATOM     21  C   UNL     1       4.600  21.565  11.058  0.00  0.00    +0.001 A 
ATOM     22  C   UNL     1       4.424  20.984   9.789  0.00  0.00    +0.015 A 
ATOM     23  C   UNL     1       5.463  20.366   9.124  0.00  0.00    +0.048 A 
ATOM     24  C   UNL     1       6.712  20.334   9.713  0.00  0.00    +0.015 A 
ATOM     25  C   UNL     1       6.913  20.942  10.951  0.00  0.00    +0.001 A 
BRANCH  23  26
ATOM     26  N   UNL     1       5.338  19.789   7.819  0.00  0.00    -0.305 N 
ATOM     27  C   UNL     1       4.687  20.532   6.731  0.00  0.00    +0.110 C 
ATOM     28  C   UNL     1       4.791  19.846   5.340  0.00  0.00    +0.110 C 
ATOM     29  N   UNL     1       4.515  18.390   5.381  0.00  0.00    -0.214 NA
ATOM     30  C   UNL     1       4.398  17.865   6.760  0.00  0.00    +0.110 C 
ATOM     31  C   UNL     1       5.556  18.352   7.618  0.00  0.00    +0.110 C 
ENDBRANCH  23  26
ENDBRANCH   6  20
TORSDOF 3
ENDMDL
MODEL 8
REMARK VINA RESULT:      -7.7      6.924     11.113
REMARK  Name = 3Q4U_LDN.pdb
REMARK  3 active torsions:
REMARK  status: ('A' for Active; 'I' for Inactive)
REMARK    1  A    between atoms: _18  and  _19
REMARK    2  A    between atoms: _20  and  _30
REMARK    3  A    between atoms: _21  and  _22
REMARK                            x       y       z     vdW  Elec       q    Type
REMARK                         _______ _______ _______ _____ _____    ______ ____
ROOT
ATOM      1  C   UNL     1       7.192  14.975  21.406  0.00  0.00    +0.057 A 
ATOM      2  C   UNL     1       7.011  15.463  20.124  0.00  0.00    +0.165 A 
ATOM      3  N   UNL     1       7.299  16.858  20.188  0.00  0.00    -0.211 N 
ATOM      4  N   UNL     1       7.590  17.151  21.357  0.00  0.00    -0.162 NA
ATOM      5  C   UNL     1       7.218  17.636  19.058  0.00  0.00    +0.104 A 
ATOM      6  C   UNL     1       6.826  17.053  17.865  0.00  0.00    +0.038 A 
ATOM      7  C   UNL     1       6.584  15.676  17.829  0.00  0.00    +0.102 A 
ATOM      8  N   UNL     1       6.627  14.898  18.954  0.00  0.00    -0.225 NA
ATOM      9  C   UNL     1       7.534  16.032  22.120  0.00  0.00    +0.124 A 
ENDROOT
BRANCH   1  14
ATOM     10  C   UNL     1       3.391  11.418  21.898  0.00  0.00    +0.002 A 
ATOM     11  C   UNL     1       4.563  10.849  22.364  0.00  0.00    +0.019 A 
ATOM     12  C   UNL     1       5.768  11.546  22.362  0.00  0.00    +0.081 A 
ATOM     13  C   UNL     1       5.798  12.875  21.878  0.00  0.00    +0.018 A 
ATOM     14  C   UNL     1       7.020  13.609  21.884  0.00  0.00    +0.008 A 
ATOM     15  C   UNL     1       8.142  12.915  22.304  0.00  0.00    +0.021 A 
ATOM     16  C   UNL     1       8.057  11.595  22.789  0.00  0.00    +0.099 A 
ATOM     17  C   UNL     1       4.603  13.432  21.443  0.00  0.00    +0.001 A 
ATOM     18  N   UNL     1       6.890  10.943  22.782  0.00  0.00    -0.244 NA
ATOM     19  C   UNL     1       3.400  12.725  21.427  0.00  0.00    +0.000 A 
ENDBRANCH   1  14
BRANCH   6  20
ATOM     20  C   UNL     1       6.810  17.863  16.712  0.00  0.00    +0.003 A 
ATOM     21  C   UNL     1       7.029  17.333  15.431  0.00  0.00    +0.001 A 
ATOM     22  C   UNL     1       6.932  18.185  14.317  0.00  0.00    +0.015 A 
ATOM     23  C   UNL     1       6.643  19.527  14.452  0.00  0.00    +0.048 A 
ATOM     24  C   UNL     1       6.425  20.042  15.716  0.00  0.00    +0.015 A 
ATOM     25  C   UNL     1       6.475  19.202  16.827  0.00  0.00    +0.001 A 
BRANCH  23  26
ATOM     26  N   UNL     1       6.505  20.426  13.345  0.00  0.00    -0.305 N 
ATOM     27  C   UNL     1       5.721  21.661  13.478  0.00  0.00    +0.110 C 
ATOM     28  C   UNL     1       5.816  22.611  12.252  0.00  0.00    +0.110 C 
ATOM     29  N   UNL     1       5.694  21.906  10.952  0.00  0.00    -0.214 NA
ATOM     30  C   UNL     1       5.710  20.433  11.093  0.00  0.00    +0.110 C 
ATOM     31  C   UNL     1       6.858  19.994  11.988  0.00  0.00    +0.110 C 
ENDBRANCH  23  26
ENDBRANCH   6  20
TORSDOF 3
ENDMDL
MODEL 9
REMARK VINA RESULT:      -7.6      3.301      6.261
REMARK  Name = 3Q4U_LDN.pdb
REMARK  3 active torsions:
REMARK  status: ('A' for Active; 'I' for Inactive)
REMARK    1  A    between atoms: _18  and  _19
REMARK    2  A    between atoms: _20  and  _30
REMARK    3  A    between atoms: _21  and  _22
REMARK                            x       y       z     vdW  Elec       q    Type
REMARK                         _______ _______ _______ _____ _____    ______ ____
ROOT
ATOM      1  C   UNL     1       4.615  21.483   9.882  0.00  0.00    +0.057 A 
ATOM      2  C   UNL     1       4.694  21.780  11.231  0.00  0.00    +0.165 A 
ATOM      3  N   UNL     1       5.645  20.872  11.782  0.00  0.00    -0.211 N 
ATOM      4  N   UNL     1       6.054  20.128  10.877  0.00  0.00    -0.162 NA
ATOM      5  C   UNL     1       5.956  20.919  13.119  0.00  0.00    +0.104 A 
ATOM      6  C   UNL     1       5.314  21.840  13.928  0.00  0.00    +0.038 A 
ATOM      7  C   UNL     1       4.411  22.740  13.351  0.00  0.00    +0.102 A 
ATOM      8  N   UNL     1       4.067  22.679  12.028  0.00  0.00    -0.225 NA
ATOM      9  C   UNL     1       5.449  20.473   9.714  0.00  0.00    +0.124 A 
ENDROOT
BRANCH   1  14
ATOM     10  C   UNL     1      -0.136  20.928   7.770  0.00  0.00    +0.002 A 
ATOM     11  C   UNL     1       0.472  22.010   7.160  0.00  0.00    +0.019 A 
ATOM     12  C   UNL     1       1.756  22.423   7.508  0.00  0.00    +0.081 A 
ATOM     13  C   UNL     1       2.462  21.716   8.508  0.00  0.00    +0.018 A 
ATOM     14  C   UNL     1       3.784  22.115   8.865  0.00  0.00    +0.008 A 
ATOM     15  C   UNL     1       4.262  23.255   8.242  0.00  0.00    +0.021 A 
ATOM     16  C   UNL     1       3.522  23.917   7.242  0.00  0.00    +0.099 A 
ATOM     17  C   UNL     1       1.840  20.616   9.084  0.00  0.00    +0.001 A 
ATOM     18  N   UNL     1       2.291  23.505   6.923  0.00  0.00    -0.244 NA
ATOM     19  C   UNL     1       0.548  20.215   8.748  0.00  0.00    +0.000 A 
ENDBRANCH   1  14
BRANCH   6  20
ATOM     20  C   UNL     1       5.697  21.904  15.283  0.00  0.00    +0.003 A 
ATOM     21  C   UNL     1       5.616  20.787  16.129  0.00  0.00    +0.001 A 
ATOM     22  C   UNL     1       6.077  20.903  17.453  0.00  0.00    +0.015 A 
ATOM     23  C   UNL     1       6.592  22.085  17.942  0.00  0.00    +0.048 A 
ATOM     24  C   UNL     1       6.674  23.179  17.102  0.00  0.00    +0.015 A 
ATOM     25  C   UNL     1       6.260  23.070  15.776  0.00  0.00    +0.001 A 
BRANCH  23  26
ATOM     26  N   UNL     1       7.101  22.240  19.272  0.00  0.00    -0.305 N 
ATOM     27  C   UNL     1       6.809  23.454  20.048  0.00  0.00    +0.110 C 
ATOM     28  C   UNL     1       7.278  23.391  21.528  0.00  0.00    +0.110 C 
ATOM     29  N   UNL     1       8.645  22.837  21.688  0.00  0.00    -0.214 NA
ATOM     30  C   UNL     1       9.189  22.277  20.431  0.00  0.00    +0.110 C 
ATOM     31  C   UNL     1       8.169  21.364  19.767  0.00  0.00    +0.110 C 
ENDBRANCH  23  26
ENDBRANCH   6  20
TORSDOF 3
ENDMDL
