MODEL 1
REMARK VINA RESULT:      -4.7      0.000      0.000
REMARK  Name = 3MTF_A3F.pdb
REMARK  5 active torsions:
REMARK  status: ('A' for Active; 'I' for Inactive)
REMARK    1  A    between atoms: _14  and  _15
REMARK    2  A    between atoms: _16  and  _19
REMARK    3  A    between atoms: _17  and  _24
REMARK    4  A    between atoms: _18  and  _25
REMARK    5  A    between atoms: _20  and  _26
REMARK                            x       y       z     vdW  Elec       q    Type
REMARK                         _______ _______ _______ _____ _____    ______ ____
ROOT
ATOM      1  C   UNL     1      24.544  19.084  15.909  0.00  0.00    +0.035 A 
ATOM      2  C   UNL     1      24.897  20.071  15.013  0.00  0.00    +0.170 A 
ATOM      3  N   UNL     1      24.055  20.435  14.035  0.00  0.00    -0.226 NA
ATOM      4  C   UNL     1      22.870  19.914  13.862  0.00  0.00    +0.100 A 
ATOM      5  C   UNL     1      22.403  18.977  14.773  0.00  0.00    +0.019 A 
ATOM      6  N   UNL     1      26.128  20.567  15.065  0.00  0.00    -0.107 NA
ATOM      7  C   UNL     1      23.270  18.530  15.774  0.00  0.00    +0.004 A 
ENDROOT
BRANCH   5   8
ATOM      8  C   UNL     1      21.137  18.392  14.574  0.00  0.00    +0.005 A 
ATOM      9  C   UNL     1      20.097  19.213  14.175  0.00  0.00    +0.042 A 
ATOM     10  C   UNL     1      18.814  18.713  14.020  0.00  0.00    +0.196 A 
ATOM     11  O   UNL     1      17.834  19.568  13.640  0.00  0.00    -0.287 OA
ATOM     12  C   UNL     1      18.523  17.381  14.289  0.00  0.00    +0.042 A 
ATOM     13  C   UNL     1      19.561  16.564  14.730  0.00  0.00    +0.003 A 
ATOM     14  C   UNL     1      20.860  17.066  14.895  0.00  0.00    +0.000 A 
ENDBRANCH   5   8
BRANCH   1  19
ATOM     15  C   UNL     1      26.273  18.903  19.225  0.00  0.00    +0.175 A 
ATOM     16  C   UNL     1      26.998  17.732  19.057  0.00  0.00    +0.206 A 
ATOM     17  C   UNL     1      26.958  17.035  17.852  0.00  0.00    +0.175 A 
ATOM     18  C   UNL     1      26.152  17.481  16.813  0.00  0.00    +0.040 A 
ATOM     19  C   UNL     1      25.413  18.656  16.947  0.00  0.00    +0.009 A 
ATOM     20  C   UNL     1      25.477  19.344  18.162  0.00  0.00    +0.040 A 
BRANCH  15  22
ATOM     21  C   UNL     1      27.500  20.500  20.679  0.00  0.00    +0.253 C 
ATOM     22  O   UNL     1      26.369  19.590  20.436  0.00  0.00    -0.468 OA
ENDBRANCH  15  22
BRANCH  16  23
ATOM     23  O   UNL     1      27.775  17.239  20.060  0.00  0.00    -0.465 OA
ATOM     24  C   UNL     1      27.012  16.473  20.976  0.00  0.00    +0.253 C 
ENDBRANCH  16  23
BRANCH  17  25
ATOM     25  O   UNL     1      27.731  15.921  17.764  0.00  0.00    -0.468 OA
ATOM     26  C   UNL     1      27.030  14.673  17.660  0.00  0.00    +0.253 C 
ENDBRANCH  17  25
ENDBRANCH   1  19
TORSDOF 5
ENDMDL
MODEL 2
REMARK VINA RESULT:      -4.7      9.007     11.001
REMARK  Name = 3MTF_A3F.pdb
REMARK  5 active torsions:
REMARK  status: ('A' for Active; 'I' for Inactive)
REMARK    1  A    between atoms: _14  and  _15
REMARK    2  A    between atoms: _16  and  _19
REMARK    3  A    between atoms: _17  and  _24
REMARK    4  A    between atoms: _18  and  _25
REMARK    5  A    between atoms: _20  and  _26
REMARK                            x       y       z     vdW  Elec       q    Type
REMARK                         _______ _______ _______ _____ _____    ______ ____
ROOT
ATOM      1  C   UNL     1      22.567  12.807  26.119  0.00  0.00    +0.035 A 
ATOM      2  C   UNL     1      22.198  11.543  26.530  0.00  0.00    +0.170 A 
ATOM      3  N   UNL     1      21.168  10.912  25.949  0.00  0.00    -0.226 NA
ATOM      4  C   UNL     1      20.461  11.416  24.973  0.00  0.00    +0.100 A 
ATOM      5  C   UNL     1      20.823  12.646  24.441  0.00  0.00    +0.019 A 
ATOM      6  N   UNL     1      22.804  11.016  27.588  0.00  0.00    -0.107 NA
ATOM      7  C   UNL     1      21.856  13.360  25.054  0.00  0.00    +0.004 A 
ENDROOT
BRANCH   5   8
ATOM      8  C   UNL     1      20.046  13.205  23.407  0.00  0.00    +0.005 A 
ATOM      9  C   UNL     1      19.380  12.344  22.554  0.00  0.00    +0.042 A 
ATOM     10  C   UNL     1      18.649  12.826  21.482  0.00  0.00    +0.196 A 
ATOM     11  O   UNL     1      18.028  11.932  20.674  0.00  0.00    -0.287 OA
ATOM     12  C   UNL     1      18.584  14.187  21.208  0.00  0.00    +0.042 A 
ATOM     13  C   UNL     1      19.288  15.053  22.042  0.00  0.00    +0.003 A 
ATOM     14  C   UNL     1      20.036  14.569  23.125  0.00  0.00    +0.000 A 
ENDBRANCH   5   8
BRANCH   1  19
ATOM     15  C   UNL     1      26.009  14.129  26.770  0.00  0.00    +0.175 A 
ATOM     16  C   UNL     1      25.733  15.031  27.789  0.00  0.00    +0.206 A 
ATOM     17  C   UNL     1      24.441  15.168  28.290  0.00  0.00    +0.175 A 
ATOM     18  C   UNL     1      23.398  14.433  27.742  0.00  0.00    +0.040 A 
ATOM     19  C   UNL     1      23.640  13.516  26.720  0.00  0.00    +0.009 A 
ATOM     20  C   UNL     1      24.947  13.388  26.241  0.00  0.00    +0.040 A 
BRANCH  15  22
ATOM     21  C   UNL     1      27.758  14.692  25.100  0.00  0.00    +0.253 C 
ATOM     22  O   UNL     1      27.324  13.997  26.322  0.00  0.00    -0.468 OA
ENDBRANCH  15  22
BRANCH  16  23
ATOM     23  O   UNL     1      26.718  15.796  28.333  0.00  0.00    -0.465 OA
ATOM     24  C   UNL     1      27.390  15.110  29.375  0.00  0.00    +0.253 C 
ENDBRANCH  16  23
BRANCH  17  25
ATOM     25  O   UNL     1      24.271  16.045  29.314  0.00  0.00    -0.468 OA
ATOM     26  C   UNL     1      22.939  16.160  29.833  0.00  0.00    +0.253 C 
ENDBRANCH  17  25
ENDBRANCH   1  19
TORSDOF 5
ENDMDL
MODEL 3
REMARK VINA RESULT:      -4.6      9.022     10.811
REMARK  Name = 3MTF_A3F.pdb
REMARK  5 active torsions:
REMARK  status: ('A' for Active; 'I' for Inactive)
REMARK    1  A    between atoms: _14  and  _15
REMARK    2  A    between atoms: _16  and  _19
REMARK    3  A    between atoms: _17  and  _24
REMARK    4  A    between atoms: _18  and  _25
REMARK    5  A    between atoms: _20  and  _26
REMARK                            x       y       z     vdW  Elec       q    Type
REMARK                         _______ _______ _______ _____ _____    ______ ____
ROOT
ATOM      1  C   UNL     1      22.528  12.805  26.017  0.00  0.00    +0.035 A 
ATOM      2  C   UNL     1      22.175  11.558  26.488  0.00  0.00    +0.170 A 
ATOM      3  N   UNL     1      21.140  10.895  25.952  0.00  0.00    -0.226 NA
ATOM      4  C   UNL     1      20.414  11.352  24.967  0.00  0.00    +0.100 A 
ATOM      5  C   UNL     1      20.757  12.561  24.377  0.00  0.00    +0.019 A 
ATOM      6  N   UNL     1      22.801  11.081  27.558  0.00  0.00    -0.107 NA
ATOM      7  C   UNL     1      21.795  13.308  24.941  0.00  0.00    +0.004 A 
ENDROOT
BRANCH   5   8
ATOM      8  C   UNL     1      19.960  13.070  23.333  0.00  0.00    +0.005 A 
ATOM      9  C   UNL     1      19.299  12.168  22.519  0.00  0.00    +0.042 A 
ATOM     10  C   UNL     1      18.547  12.600  21.439  0.00  0.00    +0.196 A 
ATOM     11  O   UNL     1      17.932  11.667  20.671  0.00  0.00    -0.287 OA
ATOM     12  C   UNL     1      18.457  13.949  21.117  0.00  0.00    +0.042 A 
ATOM     13  C   UNL     1      19.157  14.855  21.911  0.00  0.00    +0.003 A 
ATOM     14  C   UNL     1      19.924  14.422  23.002  0.00  0.00    +0.000 A 
ENDBRANCH   5   8
BRANCH   1  19
ATOM     15  C   UNL     1      24.464  15.085  28.269  0.00  0.00    +0.175 A 
ATOM     16  C   UNL     1      25.744  14.889  27.771  0.00  0.00    +0.206 A 
ATOM     17  C   UNL     1      25.963  14.056  26.676  0.00  0.00    +0.175 A 
ATOM     18  C   UNL     1      24.903  13.371  26.096  0.00  0.00    +0.040 A 
ATOM     19  C   UNL     1      23.605  13.548  26.570  0.00  0.00    +0.009 A 
ATOM     20  C   UNL     1      23.407  14.397  27.663  0.00  0.00    +0.040 A 
BRANCH  15  22
ATOM     21  C   UNL     1      22.926  16.273  29.816  0.00  0.00    +0.253 C 
ATOM     22  O   UNL     1      24.284  15.956  29.345  0.00  0.00    -0.468 OA
ENDBRANCH  15  22
BRANCH  16  23
ATOM     23  O   UNL     1      26.817  15.513  28.329  0.00  0.00    -0.465 OA
ATOM     24  C   UNL     1      27.351  14.759  29.404  0.00  0.00    +0.253 C 
ENDBRANCH  16  23
BRANCH  17  25
ATOM     25  O   UNL     1      27.243  13.955  26.230  0.00  0.00    -0.468 OA
ATOM     26  C   UNL     1      27.519  14.563  24.960  0.00  0.00    +0.253 C 
ENDBRANCH  17  25
ENDBRANCH   1  19
TORSDOF 5
ENDMDL
MODEL 4
REMARK VINA RESULT:      -4.4      4.864      6.295
REMARK  Name = 3MTF_A3F.pdb
REMARK  5 active torsions:
REMARK  status: ('A' for Active; 'I' for Inactive)
REMARK    1  A    between atoms: _14  and  _15
REMARK    2  A    between atoms: _16  and  _19
REMARK    3  A    between atoms: _17  and  _24
REMARK    4  A    between atoms: _18  and  _25
REMARK    5  A    between atoms: _20  and  _26
REMARK                            x       y       z     vdW  Elec       q    Type
REMARK                         _______ _______ _______ _____ _____    ______ ____
ROOT
ATOM      1  C   UNL     1      23.391  15.640  17.521  0.00  0.00    +0.035 A 
ATOM      2  C   UNL     1      23.884  14.421  17.104  0.00  0.00    +0.170 A 
ATOM      3  N   UNL     1      23.400  13.280  17.616  0.00  0.00    -0.226 NA
ATOM      4  C   UNL     1      22.450  13.228  18.510  0.00  0.00    +0.100 A 
ATOM      5  C   UNL     1      21.839  14.405  18.917  0.00  0.00    +0.019 A 
ATOM      6  N   UNL     1      24.924  14.403  16.278  0.00  0.00    -0.107 NA
ATOM      7  C   UNL     1      22.349  15.619  18.449  0.00  0.00    +0.004 A 
ENDROOT
BRANCH   5   8
ATOM      8  C   UNL     1      20.832  14.355  19.902  0.00  0.00    +0.005 A 
ATOM      9  C   UNL     1      19.756  13.513  19.690  0.00  0.00    +0.042 A 
ATOM     10  C   UNL     1      18.703  13.461  20.589  0.00  0.00    +0.196 A 
ATOM     11  O   UNL     1      17.671  12.625  20.321  0.00  0.00    -0.287 OA
ATOM     12  C   UNL     1      18.678  14.274  21.716  0.00  0.00    +0.042 A 
ATOM     13  C   UNL     1      19.741  15.153  21.908  0.00  0.00    +0.003 A 
ATOM     14  C   UNL     1      20.806  15.214  20.998  0.00  0.00    +0.000 A 
ENDBRANCH   5   8
BRANCH   1  19
ATOM     15  C   UNL     1      23.655  18.797  15.526  0.00  0.00    +0.175 A 
ATOM     16  C   UNL     1      24.764  19.372  16.128  0.00  0.00    +0.206 A 
ATOM     17  C   UNL     1      25.448  18.710  17.145  0.00  0.00    +0.175 A 
ATOM     18  C   UNL     1      24.997  17.478  17.602  0.00  0.00    +0.040 A 
ATOM     19  C   UNL     1      23.888  16.870  17.017  0.00  0.00    +0.009 A 
ATOM     20  C   UNL     1      23.224  17.550  15.991  0.00  0.00    +0.040 A 
BRANCH  15  22
ATOM     21  C   UNL     1      21.738  18.987  13.958  0.00  0.00    +0.253 C 
ATOM     22  O   UNL     1      23.020  19.479  14.487  0.00  0.00    -0.468 OA
ENDBRANCH  15  22
BRANCH  16  23
ATOM     23  O   UNL     1      25.221  20.593  15.736  0.00  0.00    -0.465 OA
ATOM     24  C   UNL     1      26.115  20.483  14.642  0.00  0.00    +0.253 C 
ENDBRANCH  16  23
BRANCH  17  25
ATOM     25  O   UNL     1      26.547  19.330  17.649  0.00  0.00    -0.468 OA
ATOM     26  C   UNL     1      26.698  19.286  19.075  0.00  0.00    +0.253 C 
ENDBRANCH  17  25
ENDBRANCH   1  19
TORSDOF 5
ENDMDL
MODEL 5
REMARK VINA RESULT:      -4.4      7.398     10.419
REMARK  Name = 3MTF_A3F.pdb
REMARK  5 active torsions:
REMARK  status: ('A' for Active; 'I' for Inactive)
REMARK    1  A    between atoms: _14  and  _15
REMARK    2  A    between atoms: _16  and  _19
REMARK    3  A    between atoms: _17  and  _24
REMARK    4  A    between atoms: _18  and  _25
REMARK    5  A    between atoms: _20  and  _26
REMARK                            x       y       z     vdW  Elec       q    Type
REMARK                         _______ _______ _______ _____ _____    ______ ____
ROOT
ATOM      1  C   UNL     1      28.346  20.522  21.811  0.00  0.00    +0.035 A 
ATOM      2  C   UNL     1      27.089  19.967  21.687  0.00  0.00    +0.170 A 
ATOM      3  N   UNL     1      26.522  19.329  22.721  0.00  0.00    -0.226 NA
ATOM      4  C   UNL     1      27.085  19.193  23.891  0.00  0.00    +0.100 A 
ATOM      5  C   UNL     1      28.311  19.799  24.126  0.00  0.00    +0.019 A 
ATOM      6  N   UNL     1      26.505  19.973  20.494  0.00  0.00    -0.107 NA
ATOM      7  C   UNL     1      28.961  20.426  23.060  0.00  0.00    +0.004 A 
ENDROOT
BRANCH   5   8
ATOM      8  C   UNL     1      28.935  19.632  25.379  0.00  0.00    +0.005 A 
ATOM      9  C   UNL     1      28.231  18.977  26.374  0.00  0.00    +0.042 A 
ATOM     10  C   UNL     1      28.761  18.832  27.645  0.00  0.00    +0.196 A 
ATOM     11  O   UNL     1      28.020  18.191  28.581  0.00  0.00    -0.287 OA
ATOM     12  C   UNL     1      30.002  19.366  27.973  0.00  0.00    +0.042 A 
ATOM     13  C   UNL     1      30.693  20.062  26.984  0.00  0.00    +0.003 A 
ATOM     14  C   UNL     1      30.157  20.217  25.697  0.00  0.00    +0.000 A 
ENDBRANCH   5   8
BRANCH   1  19
ATOM     15  C   UNL     1      29.700  23.267  19.656  0.00  0.00    +0.175 A 
ATOM     16  C   UNL     1      30.389  22.518  18.714  0.00  0.00    +0.206 A 
ATOM     17  C   UNL     1      30.370  21.126  18.756  0.00  0.00    +0.175 A 
ATOM     18  C   UNL     1      29.694  20.467  19.775  0.00  0.00    +0.040 A 
ATOM     19  C   UNL     1      28.989  21.189  20.736  0.00  0.00    +0.009 A 
ATOM     20  C   UNL     1      29.014  22.585  20.667  0.00  0.00    +0.040 A 
BRANCH  15  22
ATOM     21  C   UNL     1      28.837  25.469  20.414  0.00  0.00    +0.253 C 
ATOM     22  O   UNL     1      29.716  24.659  19.556  0.00  0.00    -0.468 OA
ENDBRANCH  15  22
BRANCH  16  23
ATOM     23  O   UNL     1      31.093  23.121  17.717  0.00  0.00    -0.465 OA
ATOM     24  C   UNL     1      30.269  23.403  16.600  0.00  0.00    +0.253 C 
ENDBRANCH  16  23
BRANCH  17  25
ATOM     25  O   UNL     1      31.039  20.474  17.769  0.00  0.00    -0.468 OA
ATOM     26  C   UNL     1      30.251  19.618  16.930  0.00  0.00    +0.253 C 
ENDBRANCH  17  25
ENDBRANCH   1  19
TORSDOF 5
ENDMDL
MODEL 6
REMARK VINA RESULT:      -4.3      5.538      7.097
REMARK  Name = 3MTF_A3F.pdb
REMARK  5 active torsions:
REMARK  status: ('A' for Active; 'I' for Inactive)
REMARK    1  A    between atoms: _14  and  _15
REMARK    2  A    between atoms: _16  and  _19
REMARK    3  A    between atoms: _17  and  _24
REMARK    4  A    between atoms: _18  and  _25
REMARK    5  A    between atoms: _20  and  _26
REMARK                            x       y       z     vdW  Elec       q    Type
REMARK                         _______ _______ _______ _____ _____    ______ ____
ROOT
ATOM      1  C   UNL     1      22.817  15.220  18.691  0.00  0.00    +0.035 A 
ATOM      2  C   UNL     1      24.096  14.921  19.110  0.00  0.00    +0.170 A 
ATOM      3  N   UNL     1      25.153  15.549  18.575  0.00  0.00    -0.226 NA
ATOM      4  C   UNL     1      25.062  16.471  17.654  0.00  0.00    +0.100 A 
ATOM      5  C   UNL     1      23.807  16.893  17.239  0.00  0.00    +0.019 A 
ATOM      6  N   UNL     1      24.268  13.919  19.965  0.00  0.00    -0.107 NA
ATOM      7  C   UNL     1      22.682  16.226  17.733  0.00  0.00    +0.004 A 
ENDROOT
BRANCH   5   8
ATOM      8  C   UNL     1      23.705  17.866  16.226  0.00  0.00    +0.005 A 
ATOM      9  C   UNL     1      24.745  18.767  16.083  0.00  0.00    +0.042 A 
ATOM     10  C   UNL     1      24.682  19.786  15.147  0.00  0.00    +0.196 A 
ATOM     11  O   UNL     1      25.727  20.645  15.062  0.00  0.00    -0.287 OA
ATOM     12  C   UNL     1      23.562  19.957  14.343  0.00  0.00    +0.042 A 
ATOM     13  C   UNL     1      22.497  19.076  14.515  0.00  0.00    +0.003 A 
ATOM     14  C   UNL     1      22.553  18.047  15.466  0.00  0.00    +0.000 A 
ENDBRANCH   5   8
BRANCH   1  19
ATOM     15  C   UNL     1      19.925  14.403  20.923  0.00  0.00    +0.175 A 
ATOM     16  C   UNL     1      19.328  13.389  20.187  0.00  0.00    +0.206 A 
ATOM     17  C   UNL     1      19.896  12.945  18.994  0.00  0.00    +0.175 A 
ATOM     18  C   UNL     1      21.047  13.546  18.502  0.00  0.00    +0.040 A 
ATOM     19  C   UNL     1      21.673  14.564  19.219  0.00  0.00    +0.009 A 
ATOM     20  C   UNL     1      21.092  14.986  20.418  0.00  0.00    +0.040 A 
BRANCH  15  22
ATOM     21  C   UNL     1      20.033  14.521  23.402  0.00  0.00    +0.253 C 
ATOM     22  O   UNL     1      19.343  14.792  22.130  0.00  0.00    -0.468 OA
ENDBRANCH  15  22
BRANCH  16  23
ATOM     23  O   UNL     1      18.180  12.795  20.613  0.00  0.00    -0.465 OA
ATOM     24  C   UNL     1      18.454  11.671  21.431  0.00  0.00    +0.253 C 
ENDBRANCH  16  23
BRANCH  17  25
ATOM     25  O   UNL     1      19.265  11.922  18.360  0.00  0.00    -0.468 OA
ATOM     26  C   UNL     1      18.655  12.240  17.102  0.00  0.00    +0.253 C 
ENDBRANCH  17  25
ENDBRANCH   1  19
TORSDOF 5
ENDMDL
MODEL 7
REMARK VINA RESULT:      -4.3      0.513      2.449
REMARK  Name = 3MTF_A3F.pdb
REMARK  5 active torsions:
REMARK  status: ('A' for Active; 'I' for Inactive)
REMARK    1  A    between atoms: _14  and  _15
REMARK    2  A    between atoms: _16  and  _19
REMARK    3  A    between atoms: _17  and  _24
REMARK    4  A    between atoms: _18  and  _25
REMARK    5  A    between atoms: _20  and  _26
REMARK                            x       y       z     vdW  Elec       q    Type
REMARK                         _______ _______ _______ _____ _____    ______ ____
ROOT
ATOM      1  C   UNL     1      24.547  18.950  15.967  0.00  0.00    +0.035 A 
ATOM      2  C   UNL     1      24.900  19.972  15.110  0.00  0.00    +0.170 A 
ATOM      3  N   UNL     1      24.053  20.383  14.156  0.00  0.00    -0.226 NA
ATOM      4  C   UNL     1      22.862  19.878  13.971  0.00  0.00    +0.100 A 
ATOM      5  C   UNL     1      22.396  18.907  14.846  0.00  0.00    +0.019 A 
ATOM      6  N   UNL     1      26.135  20.457  15.171  0.00  0.00    -0.107 NA
ATOM      7  C   UNL     1      23.268  18.412  15.821  0.00  0.00    +0.004 A 
ENDROOT
BRANCH   5   8
ATOM      8  C   UNL     1      21.124  18.339  14.634  0.00  0.00    +0.005 A 
ATOM      9  C   UNL     1      20.090  19.181  14.264  0.00  0.00    +0.042 A 
ATOM     10  C   UNL     1      18.803  18.698  14.098  0.00  0.00    +0.196 A 
ATOM     11  O   UNL     1      17.829  19.573  13.746  0.00  0.00    -0.287 OA
ATOM     12  C   UNL     1      18.500  17.361  14.328  0.00  0.00    +0.042 A 
ATOM     13  C   UNL     1      19.532  16.522  14.741  0.00  0.00    +0.003 A 
ATOM     14  C   UNL     1      20.836  17.007  14.917  0.00  0.00    +0.000 A 
ENDBRANCH   5   8
BRANCH   1  19
ATOM     15  C   UNL     1      26.843  16.699  17.884  0.00  0.00    +0.175 A 
ATOM     16  C   UNL     1      27.273  17.574  18.871  0.00  0.00    +0.206 A 
ATOM     17  C   UNL     1      26.777  18.875  18.937  0.00  0.00    +0.175 A 
ATOM     18  C   UNL     1      25.877  19.328  17.981  0.00  0.00    +0.040 A 
ATOM     19  C   UNL     1      25.422  18.474  16.978  0.00  0.00    +0.009 A 
ATOM     20  C   UNL     1      25.925  17.170  16.939  0.00  0.00    +0.040 A 
BRANCH  15  22
ATOM     21  C   UNL     1      27.891  14.823  16.639  0.00  0.00    +0.253 C 
ATOM     22  O   UNL     1      27.337  15.393  17.877  0.00  0.00    -0.468 OA
ENDBRANCH  15  22
BRANCH  16  23
ATOM     23  O   UNL     1      28.180  17.184  19.809  0.00  0.00    -0.465 OA
ATOM     24  C   UNL     1      27.558  16.473  20.864  0.00  0.00    +0.253 C 
ENDBRANCH  16  23
BRANCH  17  25
ATOM     25  O   UNL     1      27.224  19.648  19.960  0.00  0.00    -0.468 OA
ATOM     26  C   UNL     1      26.271  19.939  20.993  0.00  0.00    +0.253 C 
ENDBRANCH  17  25
ENDBRANCH   1  19
TORSDOF 5
ENDMDL
MODEL 8
REMARK VINA RESULT:      -4.3     13.418     17.471
REMARK  Name = 3MTF_A3F.pdb
REMARK  5 active torsions:
REMARK  status: ('A' for Active; 'I' for Inactive)
REMARK    1  A    between atoms: _14  and  _15
REMARK    2  A    between atoms: _16  and  _19
REMARK    3  A    between atoms: _17  and  _24
REMARK    4  A    between atoms: _18  and  _25
REMARK    5  A    between atoms: _20  and  _26
REMARK                            x       y       z     vdW  Elec       q    Type
REMARK                         _______ _______ _______ _____ _____    ______ ____
ROOT
ATOM      1  C   UNL     1      28.408  27.576  31.213  0.00  0.00    +0.035 A 
ATOM      2  C   UNL     1      27.849  28.799  31.519  0.00  0.00    +0.170 A 
ATOM      3  N   UNL     1      27.184  29.496  30.586  0.00  0.00    -0.226 NA
ATOM      4  C   UNL     1      27.007  29.086  29.359  0.00  0.00    +0.100 A 
ATOM      5  C   UNL     1      27.461  27.826  28.994  0.00  0.00    +0.019 A 
ATOM      6  N   UNL     1      28.083  29.326  32.715  0.00  0.00    -0.107 NA
ATOM      7  C   UNL     1      28.206  27.091  29.920  0.00  0.00    +0.004 A 
ENDROOT
BRANCH   5   8
ATOM      8  C   UNL     1      27.296  27.391  27.664  0.00  0.00    +0.005 A 
ATOM      9  C   UNL     1      28.300  26.623  27.101  0.00  0.00    +0.042 A 
ATOM     10  C   UNL     1      28.229  26.214  25.780  0.00  0.00    +0.196 A 
ATOM     11  O   UNL     1      29.249  25.474  25.282  0.00  0.00    -0.287 OA
ATOM     12  C   UNL     1      27.165  26.586  24.967  0.00  0.00    +0.042 A 
ATOM     13  C   UNL     1      26.175  27.394  25.521  0.00  0.00    +0.003 A 
ATOM     14  C   UNL     1      26.245  27.817  26.856  0.00  0.00    +0.000 A 
ENDBRANCH   5   8
BRANCH   1  19
ATOM     15  C   UNL     1      29.384  25.960  34.446  0.00  0.00    +0.175 A 
ATOM     16  C   UNL     1      30.460  25.194  34.019  0.00  0.00    +0.206 A 
ATOM     17  C   UNL     1      30.892  25.245  32.695  0.00  0.00    +0.175 A 
ATOM     18  C   UNL     1      30.217  26.032  31.771  0.00  0.00    +0.040 A 
ATOM     19  C   UNL     1      29.135  26.816  32.167  0.00  0.00    +0.009 A 
ATOM     20  C   UNL     1      28.726  26.756  33.503  0.00  0.00    +0.040 A 
BRANCH  15  22
ATOM     21  C   UNL     1      29.065  27.120  36.618  0.00  0.00    +0.253 C 
ATOM     22  O   UNL     1      29.008  25.906  35.789  0.00  0.00    -0.468 OA
ENDBRANCH  15  22
BRANCH  16  23
ATOM     23  O   UNL     1      31.130  24.383  34.882  0.00  0.00    -0.465 OA
ATOM     24  C   UNL     1      30.487  23.128  35.016  0.00  0.00    +0.253 C 
ENDBRANCH  16  23
BRANCH  17  25
ATOM     25  O   UNL     1      31.978  24.494  32.377  0.00  0.00    -0.468 OA
ATOM     26  C   UNL     1      32.634  24.824  31.144  0.00  0.00    +0.253 C 
ENDBRANCH  17  25
ENDBRANCH   1  19
TORSDOF 5
ENDMDL
MODEL 9
REMARK VINA RESULT:      -4.3      7.558     10.743
REMARK  Name = 3MTF_A3F.pdb
REMARK  5 active torsions:
REMARK  status: ('A' for Active; 'I' for Inactive)
REMARK    1  A    between atoms: _14  and  _15
REMARK    2  A    between atoms: _16  and  _19
REMARK    3  A    between atoms: _17  and  _24
REMARK    4  A    between atoms: _18  and  _25
REMARK    5  A    between atoms: _20  and  _26
REMARK                            x       y       z     vdW  Elec       q    Type
REMARK                         _______ _______ _______ _____ _____    ______ ____
ROOT
ATOM      1  C   UNL     1      28.501  20.594  21.885  0.00  0.00    +0.035 A 
ATOM      2  C   UNL     1      27.245  20.056  21.700  0.00  0.00    +0.170 A 
ATOM      3  N   UNL     1      26.627  19.407  22.698  0.00  0.00    -0.226 NA
ATOM      4  C   UNL     1      27.139  19.247  23.889  0.00  0.00    +0.100 A 
ATOM      5  C   UNL     1      28.361  19.835  24.185  0.00  0.00    +0.019 A 
ATOM      6  N   UNL     1      26.712  20.088  20.484  0.00  0.00    -0.107 NA
ATOM      7  C   UNL     1      29.062  20.472  23.157  0.00  0.00    +0.004 A 
ENDROOT
BRANCH   5   8
ATOM      8  C   UNL     1      28.929  19.641  25.460  0.00  0.00    +0.005 A 
ATOM      9  C   UNL     1      28.208  18.914  26.390  0.00  0.00    +0.042 A 
ATOM     10  C   UNL     1      28.681  18.738  27.679  0.00  0.00    +0.196 A 
ATOM     11  O   UNL     1      27.924  18.026  28.550  0.00  0.00    -0.287 OA
ATOM     12  C   UNL     1      29.879  19.309  28.091  0.00  0.00    +0.042 A 
ATOM     13  C   UNL     1      30.586  20.076  27.168  0.00  0.00    +0.003 A 
ATOM     14  C   UNL     1      30.107  20.263  25.863  0.00  0.00    +0.000 A 
ENDBRANCH   5   8
BRANCH   1  19
ATOM     15  C   UNL     1      30.536  21.203  18.803  0.00  0.00    +0.175 A 
ATOM     16  C   UNL     1      30.431  22.583  18.712  0.00  0.00    +0.206 A 
ATOM     17  C   UNL     1      29.741  23.312  19.678  0.00  0.00    +0.175 A 
ATOM     18  C   UNL     1      29.107  22.657  20.726  0.00  0.00    +0.040 A 
ATOM     19  C   UNL     1      29.195  21.272  20.849  0.00  0.00    +0.009 A 
ATOM     20  C   UNL     1      29.902  20.563  19.873  0.00  0.00    +0.040 A 
BRANCH  15  22
ATOM     21  C   UNL     1      30.569  19.701  16.826  0.00  0.00    +0.253 C 
ATOM     22  O   UNL     1      31.267  20.515  17.833  0.00  0.00    -0.468 OA
ENDBRANCH  15  22
BRANCH  16  23
ATOM     23  O   UNL     1      31.008  23.264  17.684  0.00  0.00    -0.465 OA
ATOM     24  C   UNL     1      30.139  23.348  16.568  0.00  0.00    +0.253 C 
ENDBRANCH  16  23
BRANCH  17  25
ATOM     25  O   UNL     1      29.724  24.663  19.530  0.00  0.00    -0.468 OA
ATOM     26  C   UNL     1      28.776  25.374  20.337  0.00  0.00    +0.253 C 
ENDBRANCH  17  25
ENDBRANCH   1  19
TORSDOF 5
ENDMDL
