MODEL 1
REMARK VINA RESULT:      -8.0      0.000      0.000
REMARK  Name = 3MTF_A3F.pdb
REMARK  5 active torsions:
REMARK  status: ('A' for Active; 'I' for Inactive)
REMARK    1  A    between atoms: _14  and  _15
REMARK    2  A    between atoms: _16  and  _19
REMARK    3  A    between atoms: _17  and  _24
REMARK    4  A    between atoms: _18  and  _25
REMARK    5  A    between atoms: _20  and  _26
REMARK                            x       y       z     vdW  Elec       q    Type
REMARK                         _______ _______ _______ _____ _____    ______ ____
ROOT
ATOM      1  C   UNL     1       6.237  24.287  15.453  0.00  0.00    +0.035 A 
ATOM      2  C   UNL     1       6.739  25.471  14.955  0.00  0.00    +0.170 A 
ATOM      3  N   UNL     1       6.994  26.500  15.775  0.00  0.00    -0.226 NA
ATOM      4  C   UNL     1       6.806  26.466  17.067  0.00  0.00    +0.100 A 
ATOM      5  C   UNL     1       6.387  25.283  17.659  0.00  0.00    +0.019 A 
ATOM      6  N   UNL     1       6.851  25.612  13.639  0.00  0.00    -0.107 NA
ATOM      7  C   UNL     1       6.058  24.204  16.834  0.00  0.00    +0.004 A 
ENDROOT
BRANCH   5   8
ATOM      8  C   UNL     1       6.157  25.251  19.049  0.00  0.00    +0.005 A 
ATOM      9  C   UNL     1       6.686  24.196  19.771  0.00  0.00    +0.042 A 
ATOM     10  C   UNL     1       6.446  24.072  21.130  0.00  0.00    +0.196 A 
ATOM     11  O   UNL     1       6.981  23.011  21.781  0.00  0.00    -0.287 OA
ATOM     12  C   UNL     1       5.643  24.982  21.806  0.00  0.00    +0.042 A 
ATOM     13  C   UNL     1       5.075  26.021  21.071  0.00  0.00    +0.003 A 
ATOM     14  C   UNL     1       5.309  26.147  19.694  0.00  0.00    +0.000 A 
ENDBRANCH   5   8
BRANCH   1  19
ATOM     15  C   UNL     1       4.966  22.287  12.554  0.00  0.00    +0.175 A 
ATOM     16  C   UNL     1       5.477  21.038  12.878  0.00  0.00    +0.206 A 
ATOM     17  C   UNL     1       6.190  20.844  14.059  0.00  0.00    +0.175 A 
ATOM     18  C   UNL     1       6.438  21.913  14.909  0.00  0.00    +0.040 A 
ATOM     19  C   UNL     1       5.936  23.180  14.616  0.00  0.00    +0.009 A 
ATOM     20  C   UNL     1       5.215  23.349  13.430  0.00  0.00    +0.040 A 
BRANCH  15  22
ATOM     21  C   UNL     1       4.826  23.094  10.210  0.00  0.00    +0.253 C 
ATOM     22  O   UNL     1       4.228  22.430  11.378  0.00  0.00    -0.468 OA
ENDBRANCH  15  22
BRANCH  16  23
ATOM     23  O   UNL     1       5.288  19.968  12.058  0.00  0.00    -0.465 OA
ATOM     24  C   UNL     1       6.358  19.825  11.141  0.00  0.00    +0.253 C 
ENDBRANCH  16  23
BRANCH  17  25
ATOM     25  O   UNL     1       6.618  19.580  14.314  0.00  0.00    -0.468 OA
ATOM     26  C   UNL     1       6.864  19.263  15.692  0.00  0.00    +0.253 C 
ENDBRANCH  17  25
ENDBRANCH   1  19
TORSDOF 5
ENDMDL
MODEL 2
REMARK VINA RESULT:      -8.0      0.219      2.530
REMARK  Name = 3MTF_A3F.pdb
REMARK  5 active torsions:
REMARK  status: ('A' for Active; 'I' for Inactive)
REMARK    1  A    between atoms: _14  and  _15
REMARK    2  A    between atoms: _16  and  _19
REMARK    3  A    between atoms: _17  and  _24
REMARK    4  A    between atoms: _18  and  _25
REMARK    5  A    between atoms: _20  and  _26
REMARK                            x       y       z     vdW  Elec       q    Type
REMARK                         _______ _______ _______ _____ _____    ______ ____
ROOT
ATOM      1  C   UNL     1       6.160  24.505  15.380  0.00  0.00    +0.035 A 
ATOM      2  C   UNL     1       6.505  25.755  14.912  0.00  0.00    +0.170 A 
ATOM      3  N   UNL     1       6.670  26.779  15.761  0.00  0.00    -0.226 NA
ATOM      4  C   UNL     1       6.535  26.680  17.057  0.00  0.00    +0.100 A 
ATOM      5  C   UNL     1       6.275  25.437  17.617  0.00  0.00    +0.019 A 
ATOM      6  N   UNL     1       6.553  25.952  13.599  0.00  0.00    -0.107 NA
ATOM      7  C   UNL     1       6.042  24.355  16.763  0.00  0.00    +0.004 A 
ENDROOT
BRANCH   5   8
ATOM      8  C   UNL     1       6.101  25.331  19.011  0.00  0.00    +0.005 A 
ATOM      9  C   UNL     1       6.665  24.245  19.657  0.00  0.00    +0.042 A 
ATOM     10  C   UNL     1       6.481  24.049  21.015  0.00  0.00    +0.196 A 
ATOM     11  O   UNL     1       7.049  22.961  21.590  0.00  0.00    -0.287 OA
ATOM     12  C   UNL     1       5.698  24.916  21.769  0.00  0.00    +0.042 A 
ATOM     13  C   UNL     1       5.095  25.986  21.111  0.00  0.00    +0.003 A 
ATOM     14  C   UNL     1       5.273  26.185  19.734  0.00  0.00    +0.000 A 
ENDBRANCH   5   8
BRANCH   1  19
ATOM     15  C   UNL     1       6.202  21.012  14.033  0.00  0.00    +0.175 A 
ATOM     16  C   UNL     1       5.428  21.182  12.894  0.00  0.00    +0.206 A 
ATOM     17  C   UNL     1       4.938  22.439  12.545  0.00  0.00    +0.175 A 
ATOM     18  C   UNL     1       5.181  23.534  13.363  0.00  0.00    +0.040 A 
ATOM     19  C   UNL     1       5.958  23.399  14.512  0.00  0.00    +0.009 A 
ATOM     20  C   UNL     1       6.448  22.131  14.836  0.00  0.00    +0.040 A 
BRANCH  15  22
ATOM     21  C   UNL     1       6.793  19.291  15.723  0.00  0.00    +0.253 C 
ATOM     22  O   UNL     1       6.703  19.743  14.326  0.00  0.00    -0.468 OA
ENDBRANCH  15  22
BRANCH  16  23
ATOM     23  O   UNL     1       5.135  20.130  12.081  0.00  0.00    -0.465 OA
ATOM     24  C   UNL     1       6.214  19.834  11.211  0.00  0.00    +0.253 C 
ENDBRANCH  16  23
BRANCH  17  25
ATOM     25  O   UNL     1       4.223  22.518  11.393  0.00  0.00    -0.468 OA
ATOM     26  C   UNL     1       4.868  23.180  10.295  0.00  0.00    +0.253 C 
ENDBRANCH  17  25
ENDBRANCH   1  19
TORSDOF 5
ENDMDL
MODEL 3
REMARK VINA RESULT:      -8.0      2.734      6.975
REMARK  Name = 3MTF_A3F.pdb
REMARK  5 active torsions:
REMARK  status: ('A' for Active; 'I' for Inactive)
REMARK    1  A    between atoms: _14  and  _15
REMARK    2  A    between atoms: _16  and  _19
REMARK    3  A    between atoms: _17  and  _24
REMARK    4  A    between atoms: _18  and  _25
REMARK    5  A    between atoms: _20  and  _26
REMARK                            x       y       z     vdW  Elec       q    Type
REMARK                         _______ _______ _______ _____ _____    ______ ____
ROOT
ATOM      1  C   UNL     1       6.402  26.484  15.990  0.00  0.00    +0.035 A 
ATOM      2  C   UNL     1       6.846  27.693  16.482  0.00  0.00    +0.170 A 
ATOM      3  N   UNL     1       6.852  28.784  15.702  0.00  0.00    -0.226 NA
ATOM      4  C   UNL     1       6.444  28.796  14.462  0.00  0.00    +0.100 A 
ATOM      5  C   UNL     1       5.899  27.641  13.918  0.00  0.00    +0.019 A 
ATOM      6  N   UNL     1       7.376  27.730  17.699  0.00  0.00    -0.107 NA
ATOM      7  C   UNL     1       5.924  26.469  14.679  0.00  0.00    +0.004 A 
ENDROOT
BRANCH   5   8
ATOM      8  C   UNL     1       5.483  27.641  12.572  0.00  0.00    +0.005 A 
ATOM      9  C   UNL     1       5.424  26.429  11.909  0.00  0.00    +0.042 A 
ATOM     10  C   UNL     1       5.081  26.366  10.568  0.00  0.00    +0.196 A 
ATOM     11  O   UNL     1       5.052  25.150   9.970  0.00  0.00    -0.287 OA
ATOM     12  C   UNL     1       4.815  27.517   9.838  0.00  0.00    +0.042 A 
ATOM     13  C   UNL     1       4.915  28.742  10.494  0.00  0.00    +0.003 A 
ATOM     14  C   UNL     1       5.269  28.812  11.849  0.00  0.00    +0.000 A 
ENDBRANCH   5   8
BRANCH   1  19
ATOM     15  C   UNL     1       6.743  22.888  16.973  0.00  0.00    +0.175 A 
ATOM     16  C   UNL     1       6.549  22.991  18.343  0.00  0.00    +0.206 A 
ATOM     17  C   UNL     1       6.261  24.220  18.932  0.00  0.00    +0.175 A 
ATOM     18  C   UNL     1       6.210  25.371  18.157  0.00  0.00    +0.040 A 
ATOM     19  C   UNL     1       6.396  25.302  16.777  0.00  0.00    +0.009 A 
ATOM     20  C   UNL     1       6.673  24.056  16.207  0.00  0.00    +0.040 A 
BRANCH  15  22
ATOM     21  C   UNL     1       5.886  20.840  15.858  0.00  0.00    +0.253 C 
ATOM     22  O   UNL     1       6.993  21.631  16.419  0.00  0.00    -0.468 OA
ENDBRANCH  15  22
BRANCH  16  23
ATOM     23  O   UNL     1       6.624  21.895  19.146  0.00  0.00    -0.465 OA
ATOM     24  C   UNL     1       7.963  21.614  19.513  0.00  0.00    +0.253 C 
ENDBRANCH  16  23
BRANCH  17  25
ATOM     25  O   UNL     1       6.047  24.220  20.274  0.00  0.00    -0.468 OA
ATOM     26  C   UNL     1       5.670  25.478  20.852  0.00  0.00    +0.253 C 
ENDBRANCH  17  25
ENDBRANCH   1  19
TORSDOF 5
ENDMDL
MODEL 4
REMARK VINA RESULT:      -7.9      3.079      7.415
REMARK  Name = 3MTF_A3F.pdb
REMARK  5 active torsions:
REMARK  status: ('A' for Active; 'I' for Inactive)
REMARK    1  A    between atoms: _14  and  _15
REMARK    2  A    between atoms: _16  and  _19
REMARK    3  A    between atoms: _17  and  _24
REMARK    4  A    between atoms: _18  and  _25
REMARK    5  A    between atoms: _20  and  _26
REMARK                            x       y       z     vdW  Elec       q    Type
REMARK                         _______ _______ _______ _____ _____    ______ ____
ROOT
ATOM      1  C   UNL     1       6.542  26.648  16.021  0.00  0.00    +0.035 A 
ATOM      2  C   UNL     1       6.926  27.922  16.385  0.00  0.00    +0.170 A 
ATOM      3  N   UNL     1       6.892  28.924  15.495  0.00  0.00    -0.226 NA
ATOM      4  C   UNL     1       6.496  28.786  14.258  0.00  0.00    +0.100 A 
ATOM      5  C   UNL     1       6.009  27.557  13.836  0.00  0.00    +0.019 A 
ATOM      6  N   UNL     1       7.442  28.110  17.595  0.00  0.00    -0.107 NA
ATOM      7  C   UNL     1       6.079  26.474  14.716  0.00  0.00    +0.004 A 
ENDROOT
BRANCH   5   8
ATOM      8  C   UNL     1       5.607  27.397  12.495  0.00  0.00    +0.005 A 
ATOM      9  C   UNL     1       5.356  28.536  11.751  0.00  0.00    +0.042 A 
ATOM     10  C   UNL     1       4.900  28.449  10.447  0.00  0.00    +0.196 A 
ATOM     11  O   UNL     1       4.660  29.600   9.772  0.00  0.00    -0.287 OA
ATOM     12  C   UNL     1       4.649  27.219   9.852  0.00  0.00    +0.042 A 
ATOM     13  C   UNL     1       4.862  26.072  10.614  0.00  0.00    +0.003 A 
ATOM     14  C   UNL     1       5.318  26.155  11.938  0.00  0.00    +0.000 A 
ENDBRANCH   5   8
BRANCH   1  19
ATOM     15  C   UNL     1       7.358  23.308  17.503  0.00  0.00    +0.175 A 
ATOM     16  C   UNL     1       6.805  23.461  18.766  0.00  0.00    +0.206 A 
ATOM     17  C   UNL     1       6.129  24.629  19.112  0.00  0.00    +0.175 A 
ATOM     18  C   UNL     1       6.039  25.678  18.207  0.00  0.00    +0.040 A 
ATOM     19  C   UNL     1       6.581  25.557  16.928  0.00  0.00    +0.009 A 
ATOM     20  C   UNL     1       7.246  24.371  16.600  0.00  0.00    +0.040 A 
BRANCH  15  22
ATOM     21  C   UNL     1       7.275  21.068  16.434  0.00  0.00    +0.253 C 
ATOM     22  O   UNL     1       7.996  22.108  17.185  0.00  0.00    -0.468 OA
ENDBRANCH  15  22
BRANCH  16  23
ATOM     23  O   UNL     1       6.898  22.473  19.697  0.00  0.00    -0.465 OA
ATOM     24  C   UNL     1       8.093  22.583  20.450  0.00  0.00    +0.253 C 
ENDBRANCH  16  23
BRANCH  17  25
ATOM     25  O   UNL     1       5.585  24.675  20.356  0.00  0.00    -0.468 OA
ATOM     26  C   UNL     1       5.244  25.979  20.848  0.00  0.00    +0.253 C 
ENDBRANCH  17  25
ENDBRANCH   1  19
TORSDOF 5
ENDMDL
MODEL 5
REMARK VINA RESULT:      -7.9      2.737      7.070
REMARK  Name = 3MTF_A3F.pdb
REMARK  5 active torsions:
REMARK  status: ('A' for Active; 'I' for Inactive)
REMARK    1  A    between atoms: _14  and  _15
REMARK    2  A    between atoms: _16  and  _19
REMARK    3  A    between atoms: _17  and  _24
REMARK    4  A    between atoms: _18  and  _25
REMARK    5  A    between atoms: _20  and  _26
REMARK                            x       y       z     vdW  Elec       q    Type
REMARK                         _______ _______ _______ _____ _____    ______ ____
ROOT
ATOM      1  C   UNL     1       6.483  26.573  15.926  0.00  0.00    +0.035 A 
ATOM      2  C   UNL     1       6.880  27.809  16.391  0.00  0.00    +0.170 A 
ATOM      3  N   UNL     1       6.824  28.886  15.594  0.00  0.00    -0.226 NA
ATOM      4  C   UNL     1       6.393  28.859  14.361  0.00  0.00    +0.100 A 
ATOM      5  C   UNL     1       5.893  27.672  13.845  0.00  0.00    +0.019 A 
ATOM      6  N   UNL     1       7.429  27.889  17.597  0.00  0.00    -0.107 NA
ATOM      7  C   UNL     1       5.984  26.514  14.624  0.00  0.00    +0.004 A 
ENDROOT
BRANCH   5   8
ATOM      8  C   UNL     1       5.453  27.631  12.507  0.00  0.00    +0.005 A 
ATOM      9  C   UNL     1       5.440  26.407  11.863  0.00  0.00    +0.042 A 
ATOM     10  C   UNL     1       5.078  26.307  10.530  0.00  0.00    +0.196 A 
ATOM     11  O   UNL     1       5.096  25.082   9.951  0.00  0.00    -0.287 OA
ATOM     12  C   UNL     1       4.745  27.433   9.787  0.00  0.00    +0.042 A 
ATOM     13  C   UNL     1       4.799  28.671  10.424  0.00  0.00    +0.003 A 
ATOM     14  C   UNL     1       5.172  28.779  11.771  0.00  0.00    +0.000 A 
ENDBRANCH   5   8
BRANCH   1  19
ATOM     15  C   UNL     1       6.265  24.315  18.904  0.00  0.00    +0.175 A 
ATOM     16  C   UNL     1       6.502  23.089  18.298  0.00  0.00    +0.206 A 
ATOM     17  C   UNL     1       6.779  23.010  16.935  0.00  0.00    +0.175 A 
ATOM     18  C   UNL     1       6.776  24.158  16.153  0.00  0.00    +0.040 A 
ATOM     19  C   UNL     1       6.545  25.405  16.731  0.00  0.00    +0.009 A 
ATOM     20  C   UNL     1       6.279  25.461  18.103  0.00  0.00    +0.040 A 
BRANCH  15  22
ATOM     21  C   UNL     1       5.549  25.594  20.909  0.00  0.00    +0.253 C 
ATOM     22  O   UNL     1       6.027  24.353  20.279  0.00  0.00    -0.468 OA
ENDBRANCH  15  22
BRANCH  16  23
ATOM     23  O   UNL     1       6.482  21.934  19.018  0.00  0.00    -0.465 OA
ATOM     24  C   UNL     1       7.755  21.647  19.569  0.00  0.00    +0.253 C 
ENDBRANCH  16  23
BRANCH  17  25
ATOM     25  O   UNL     1       7.039  21.774  16.434  0.00  0.00    -0.468 OA
ATOM     26  C   UNL     1       5.979  21.160  15.687  0.00  0.00    +0.253 C 
ENDBRANCH  17  25
ENDBRANCH   1  19
TORSDOF 5
ENDMDL
MODEL 6
REMARK VINA RESULT:      -7.8      3.033      7.405
REMARK  Name = 3MTF_A3F.pdb
REMARK  5 active torsions:
REMARK  status: ('A' for Active; 'I' for Inactive)
REMARK    1  A    between atoms: _14  and  _15
REMARK    2  A    between atoms: _16  and  _19
REMARK    3  A    between atoms: _17  and  _24
REMARK    4  A    between atoms: _18  and  _25
REMARK    5  A    between atoms: _20  and  _26
REMARK                            x       y       z     vdW  Elec       q    Type
REMARK                         _______ _______ _______ _____ _____    ______ ____
ROOT
ATOM      1  C   UNL     1       6.193  23.403  15.999  0.00  0.00    +0.035 A 
ATOM      2  C   UNL     1       5.676  22.305  15.345  0.00  0.00    +0.170 A 
ATOM      3  N   UNL     1       5.093  22.439  14.145  0.00  0.00    -0.226 NA
ATOM      4  C   UNL     1       4.981  23.576  13.513  0.00  0.00    +0.100 A 
ATOM      5  C   UNL     1       5.553  24.715  14.062  0.00  0.00    +0.019 A 
ATOM      6  N   UNL     1       5.660  21.137  15.977  0.00  0.00    -0.107 NA
ATOM      7  C   UNL     1       6.121  24.629  15.336  0.00  0.00    +0.004 A 
ENDROOT
BRANCH   5   8
ATOM      8  C   UNL     1       5.409  25.949  13.397  0.00  0.00    +0.005 A 
ATOM      9  C   UNL     1       5.274  25.935  12.020  0.00  0.00    +0.042 A 
ATOM     10  C   UNL     1       5.190  27.114  11.300  0.00  0.00    +0.196 A 
ATOM     11  O   UNL     1       5.071  27.036   9.952  0.00  0.00    -0.287 OA
ATOM     12  C   UNL     1       5.268  28.351  11.930  0.00  0.00    +0.042 A 
ATOM     13  C   UNL     1       5.446  28.367  13.311  0.00  0.00    +0.003 A 
ATOM     14  C   UNL     1       5.539  27.175  14.045  0.00  0.00    +0.000 A 
ENDBRANCH   5   8
BRANCH   1  19
ATOM     15  C   UNL     1       8.769  22.844  18.658  0.00  0.00    +0.175 A 
ATOM     16  C   UNL     1       8.061  23.267  19.774  0.00  0.00    +0.206 A 
ATOM     17  C   UNL     1       6.737  23.685  19.663  0.00  0.00    +0.175 A 
ATOM     18  C   UNL     1       6.120  23.728  18.420  0.00  0.00    +0.040 A 
ATOM     19  C   UNL     1       6.801  23.307  17.279  0.00  0.00    +0.009 A 
ATOM     20  C   UNL     1       8.126  22.882  17.416  0.00  0.00    +0.040 A 
BRANCH  15  22
ATOM     21  C   UNL     1      11.206  23.311  18.553  0.00  0.00    +0.253 C 
ATOM     22  O   UNL     1      10.082  22.399  18.819  0.00  0.00    -0.468 OA
ENDBRANCH  15  22
BRANCH  16  23
ATOM     23  O   UNL     1       8.637  23.275  21.008  0.00  0.00    -0.465 OA
ATOM     24  C   UNL     1       8.509  22.016  21.645  0.00  0.00    +0.253 C 
ENDBRANCH  16  23
BRANCH  17  25
ATOM     25  O   UNL     1       6.110  24.044  20.814  0.00  0.00    -0.468 OA
ATOM     26  C   UNL     1       5.676  25.408  20.897  0.00  0.00    +0.253 C 
ENDBRANCH  17  25
ENDBRANCH   1  19
TORSDOF 5
ENDMDL
MODEL 7
REMARK VINA RESULT:      -7.8      2.793      3.667
REMARK  Name = 3MTF_A3F.pdb
REMARK  5 active torsions:
REMARK  status: ('A' for Active; 'I' for Inactive)
REMARK    1  A    between atoms: _14  and  _15
REMARK    2  A    between atoms: _16  and  _19
REMARK    3  A    between atoms: _17  and  _24
REMARK    4  A    between atoms: _18  and  _25
REMARK    5  A    between atoms: _20  and  _26
REMARK                            x       y       z     vdW  Elec       q    Type
REMARK                         _______ _______ _______ _____ _____    ______ ____
ROOT
ATOM      1  C   UNL     1       5.971  22.643  15.885  0.00  0.00    +0.035 A 
ATOM      2  C   UNL     1       5.858  22.139  17.163  0.00  0.00    +0.170 A 
ATOM      3  N   UNL     1       6.029  22.937  18.227  0.00  0.00    -0.226 NA
ATOM      4  C   UNL     1       6.296  24.213  18.146  0.00  0.00    +0.100 A 
ATOM      5  C   UNL     1       6.339  24.817  16.897  0.00  0.00    +0.019 A 
ATOM      6  N   UNL     1       5.695  20.831  17.320  0.00  0.00    -0.107 NA
ATOM      7  C   UNL     1       6.220  24.011  15.761  0.00  0.00    +0.004 A 
ENDROOT
BRANCH   5   8
ATOM      8  C   UNL     1       6.655  26.187  16.803  0.00  0.00    +0.005 A 
ATOM      9  C   UNL     1       6.255  26.871  15.669  0.00  0.00    +0.042 A 
ATOM     10  C   UNL     1       6.585  28.203  15.486  0.00  0.00    +0.196 A 
ATOM     11  O   UNL     1       6.175  28.816  14.348  0.00  0.00    -0.287 OA
ATOM     12  C   UNL     1       7.353  28.889  16.419  0.00  0.00    +0.042 A 
ATOM     13  C   UNL     1       7.792  28.191  17.541  0.00  0.00    +0.003 A 
ATOM     14  C   UNL     1       7.466  26.839  17.727  0.00  0.00    +0.000 A 
ENDBRANCH   5   8
BRANCH   1  19
ATOM     15  C   UNL     1       5.041  21.546  12.428  0.00  0.00    +0.175 A 
ATOM     16  C   UNL     1       5.643  20.296  12.400  0.00  0.00    +0.206 A 
ATOM     17  C   UNL     1       6.305  19.798  13.520  0.00  0.00    +0.175 A 
ATOM     18  C   UNL     1       6.410  20.570  14.670  0.00  0.00    +0.040 A 
ATOM     19  C   UNL     1       5.815  21.829  14.733  0.00  0.00    +0.009 A 
ATOM     20  C   UNL     1       5.147  22.303  13.600  0.00  0.00    +0.040 A 
BRANCH  15  22
ATOM     21  C   UNL     1       4.904  23.099  10.495  0.00  0.00    +0.253 C 
ATOM     22  O   UNL     1       4.357  21.992  11.296  0.00  0.00    -0.468 OA
ENDBRANCH  15  22
BRANCH  16  23
ATOM     23  O   UNL     1       5.594  19.519  11.284  0.00  0.00    -0.465 OA
ATOM     24  C   UNL     1       6.617  19.866  10.367  0.00  0.00    +0.253 C 
ENDBRANCH  16  23
BRANCH  17  25
ATOM     25  O   UNL     1       6.829  18.549  13.416  0.00  0.00    -0.468 OA
ATOM     26  C   UNL     1       7.142  17.891  14.651  0.00  0.00    +0.253 C 
ENDBRANCH  17  25
ENDBRANCH   1  19
TORSDOF 5
ENDMDL
MODEL 8
REMARK VINA RESULT:      -7.8      3.444      6.900
REMARK  Name = 3MTF_A3F.pdb
REMARK  5 active torsions:
REMARK  status: ('A' for Active; 'I' for Inactive)
REMARK    1  A    between atoms: _14  and  _15
REMARK    2  A    between atoms: _16  and  _19
REMARK    3  A    between atoms: _17  and  _24
REMARK    4  A    between atoms: _18  and  _25
REMARK    5  A    between atoms: _20  and  _26
REMARK                            x       y       z     vdW  Elec       q    Type
REMARK                         _______ _______ _______ _____ _____    ______ ____
ROOT
ATOM      1  C   UNL     1       6.955  26.426  16.143  0.00  0.00    +0.035 A 
ATOM      2  C   UNL     1       7.032  27.675  16.724  0.00  0.00    +0.170 A 
ATOM      3  N   UNL     1       6.675  28.769  16.036  0.00  0.00    -0.226 NA
ATOM      4  C   UNL     1       6.232  28.744  14.807  0.00  0.00    +0.100 A 
ATOM      5  C   UNL     1       6.041  27.521  14.181  0.00  0.00    +0.019 A 
ATOM      6  N   UNL     1       7.575  27.784  17.931  0.00  0.00    -0.107 NA
ATOM      7  C   UNL     1       6.451  26.360  14.844  0.00  0.00    +0.004 A 
ENDROOT
BRANCH   5   8
ATOM      8  C   UNL     1       5.589  27.491  12.847  0.00  0.00    +0.005 A 
ATOM      9  C   UNL     1       5.549  26.269  12.200  0.00  0.00    +0.042 A 
ATOM     10  C   UNL     1       5.173  26.178  10.870  0.00  0.00    +0.196 A 
ATOM     11  O   UNL     1       5.164  24.954  10.288  0.00  0.00    -0.287 OA
ATOM     12  C   UNL     1       4.853  27.312  10.133  0.00  0.00    +0.042 A 
ATOM     13  C   UNL     1       4.933  28.547  10.772  0.00  0.00    +0.003 A 
ATOM     14  C   UNL     1       5.320  28.645  12.116  0.00  0.00    +0.000 A 
ENDBRANCH   5   8
BRANCH   1  19
ATOM     15  C   UNL     1       6.743  23.117  17.882  0.00  0.00    +0.175 A 
ATOM     16  C   UNL     1       8.093  22.840  18.042  0.00  0.00    +0.206 A 
ATOM     17  C   UNL     1       9.063  23.752  17.628  0.00  0.00    +0.175 A 
ATOM     18  C   UNL     1       8.688  24.935  17.005  0.00  0.00    +0.040 A 
ATOM     19  C   UNL     1       7.340  25.245  16.832  0.00  0.00    +0.009 A 
ATOM     20  C   UNL     1       6.385  24.320  17.264  0.00  0.00    +0.040 A 
BRANCH  15  22
ATOM     21  C   UNL     1       5.409  21.059  17.492  0.00  0.00    +0.253 C 
ATOM     22  O   UNL     1       5.805  22.193  18.343  0.00  0.00    -0.468 OA
ENDBRANCH  15  22
BRANCH  16  23
ATOM     23  O   UNL     1       8.508  21.678  18.617  0.00  0.00    -0.465 OA
ATOM     24  C   UNL     1       8.538  21.782  20.029  0.00  0.00    +0.253 C 
ENDBRANCH  16  23
BRANCH  17  25
ATOM     25  O   UNL     1      10.358  23.415  17.862  0.00  0.00    -0.468 OA
ATOM     26  C   UNL     1      11.331  24.008  16.990  0.00  0.00    +0.253 C 
ENDBRANCH  17  25
ENDBRANCH   1  19
TORSDOF 5
ENDMDL
MODEL 9
REMARK VINA RESULT:      -7.6      3.304      7.441
REMARK  Name = 3MTF_A3F.pdb
REMARK  5 active torsions:
REMARK  status: ('A' for Active; 'I' for Inactive)
REMARK    1  A    between atoms: _14  and  _15
REMARK    2  A    between atoms: _16  and  _19
REMARK    3  A    between atoms: _17  and  _24
REMARK    4  A    between atoms: _18  and  _25
REMARK    5  A    between atoms: _20  and  _26
REMARK                            x       y       z     vdW  Elec       q    Type
REMARK                         _______ _______ _______ _____ _____    ______ ____
ROOT
ATOM      1  C   UNL     1       6.635  22.963  16.813  0.00  0.00    +0.035 A 
ATOM      2  C   UNL     1       6.048  22.618  18.012  0.00  0.00    +0.170 A 
ATOM      3  N   UNL     1       5.665  21.354  18.244  0.00  0.00    -0.226 NA
ATOM      4  C   UNL     1       5.819  20.378  17.390  0.00  0.00    +0.100 A 
ATOM      5  C   UNL     1       6.481  20.623  16.195  0.00  0.00    +0.019 A 
ATOM      6  N   UNL     1       5.762  23.580  18.882  0.00  0.00    -0.107 NA
ATOM      7  C   UNL     1       6.848  21.937  15.892  0.00  0.00    +0.004 A 
ENDROOT
BRANCH   5   8
ATOM      8  C   UNL     1       6.625  19.579  15.260  0.00  0.00    +0.005 A 
ATOM      9  C   UNL     1       6.339  19.849  13.933  0.00  0.00    +0.042 A 
ATOM     10  C   UNL     1       6.402  18.853  12.973  0.00  0.00    +0.196 A 
ATOM     11  O   UNL     1       6.099  19.176  11.692  0.00  0.00    -0.287 OA
ATOM     12  C   UNL     1       6.723  17.545  13.313  0.00  0.00    +0.042 A 
ATOM     13  C   UNL     1       6.971  17.262  14.654  0.00  0.00    +0.003 A 
ATOM     14  C   UNL     1       6.902  18.266  15.631  0.00  0.00    +0.000 A 
ENDBRANCH   5   8
BRANCH   1  19
ATOM     15  C   UNL     1       8.671  26.104  16.728  0.00  0.00    +0.175 A 
ATOM     16  C   UNL     1       7.927  26.851  15.827  0.00  0.00    +0.206 A 
ATOM     17  C   UNL     1       6.743  26.350  15.290  0.00  0.00    +0.175 A 
ATOM     18  C   UNL     1       6.316  25.070  15.617  0.00  0.00    +0.040 A 
ATOM     19  C   UNL     1       7.038  24.293  16.521  0.00  0.00    +0.009 A 
ATOM     20  C   UNL     1       8.217  24.822  17.055  0.00  0.00    +0.040 A 
BRANCH  15  22
ATOM     21  C   UNL     1      11.141  26.049  16.986  0.00  0.00    +0.253 C 
ATOM     22  O   UNL     1       9.832  26.658  17.270  0.00  0.00    -0.468 OA
ENDBRANCH  15  22
BRANCH  16  23
ATOM     23  O   UNL     1       8.325  28.098  15.451  0.00  0.00    -0.465 OA
ATOM     24  C   UNL     1       9.270  28.042  14.397  0.00  0.00    +0.253 C 
ENDBRANCH  16  23
BRANCH  17  25
ATOM     25  O   UNL     1       6.059  27.167  14.447  0.00  0.00    -0.468 OA
ATOM     26  C   UNL     1       5.921  26.706  13.095  0.00  0.00    +0.253 C 
ENDBRANCH  17  25
ENDBRANCH   1  19
TORSDOF 5
ENDMDL
