MODEL 1
REMARK VINA RESULT:      -5.0      0.000      0.000
REMARK  Name = 3OOM_507.pdb
REMARK  4 active torsions:
REMARK  status: ('A' for Active; 'I' for Inactive)
REMARK    1  A    between atoms: _1  and  _18
REMARK    2  A    between atoms: _16  and  _24
REMARK    3  A    between atoms: _18  and  _19
REMARK    4  A    between atoms: _20  and  _22
REMARK                            x       y       z     vdW  Elec       q    Type
REMARK                         _______ _______ _______ _____ _____    ______ ____
ROOT
ATOM      1  C   UNL     1      29.151  21.089  20.036  0.00  0.00    +0.093 A 
ATOM      2  N   UNL     1      29.612  22.377  19.953  0.00  0.00    -0.211 N 
ATOM      3  C   UNL     1      30.277  22.491  18.761  0.00  0.00    +0.155 A 
ATOM      4  N   UNL     1      30.227  21.319  18.138  0.00  0.00    -0.234 NA
ATOM      5  C   UNL     1      30.859  23.725  18.414  0.00  0.00    +0.051 A 
ATOM      6  C   UNL     1      30.749  24.777  19.270  0.00  0.00    +0.049 A 
ATOM      7  C   UNL     1      30.058  24.626  20.487  0.00  0.00    +0.140 A 
ATOM      8  N   UNL     1      29.950  25.709  21.356  0.00  0.00    -0.325 N 
ATOM      9  H   UNL     1      30.351  26.560  21.122  0.00  0.00    +0.148 HD
ATOM     10  N   UNL     1      29.515  23.477  20.811  0.00  0.00    -0.150 NA
ATOM     11  C   UNL     1      29.553  20.449  18.883  0.00  0.00    +0.141 A 
ENDROOT
BRANCH   1  14
ATOM     12  C   UNL     1      28.239  19.741  23.434  0.00  0.00    +0.018 A 
ATOM     13  C   UNL     1      28.978  20.300  22.389  0.00  0.00    +0.021 A 
ATOM     14  C   UNL     1      28.376  20.500  21.148  0.00  0.00    +0.003 A 
ATOM     15  C   UNL     1      27.039  20.140  20.957  0.00  0.00    +0.010 A 
ATOM     16  C   UNL     1      26.313  19.589  21.994  0.00  0.00    +0.001 A 
ATOM     17  C   UNL     1      26.901  19.387  23.226  0.00  0.00    +0.011 A 
BRANCH  12  19
ATOM     18  C   UNL     1      28.167  19.994  25.999  0.00  0.00    +0.091 C 
ATOM     19  C   UNL     1      28.864  19.526  24.748  0.00  0.00    +0.160 C 
ATOM     20  O   UNL     1      29.942  18.973  24.824  0.00  0.00    -0.292 OA
ENDBRANCH  12  19
ENDBRANCH   1  14
BRANCH   8  21
ATOM     21  C   UNL     1      29.233  25.560  22.625  0.00  0.00    +0.076 C 
ATOM     22  C   UNL     1      30.237  25.524  23.781  0.00  0.00    +0.050 C 
ATOM     23  C   UNL     1      29.476  25.449  25.106  0.00  0.00    +0.161 C 
ATOM     24  O   UNL     1      28.593  26.568  25.212  0.00  0.00    -0.380 OA
ATOM     25  C   UNL     1      27.603  26.628  24.184  0.00  0.00    +0.161 C 
ATOM     26  C   UNL     1      28.289  26.750  22.821  0.00  0.00    +0.050 C 
ENDBRANCH   8  21
TORSDOF 3
ENDMDL
MODEL 2
REMARK VINA RESULT:      -4.8      8.569     11.261
REMARK  Name = 3OOM_507.pdb
REMARK  4 active torsions:
REMARK  status: ('A' for Active; 'I' for Inactive)
REMARK    1  A    between atoms: _1  and  _18
REMARK    2  A    between atoms: _16  and  _24
REMARK    3  A    between atoms: _18  and  _19
REMARK    4  A    between atoms: _20  and  _22
REMARK                            x       y       z     vdW  Elec       q    Type
REMARK                         _______ _______ _______ _____ _____    ______ ____
ROOT
ATOM      1  C   UNL     1      30.183  24.682  33.695  0.00  0.00    +0.093 A 
ATOM      2  N   UNL     1      29.583  25.877  33.397  0.00  0.00    -0.211 N 
ATOM      3  C   UNL     1      29.569  26.620  34.548  0.00  0.00    +0.155 A 
ATOM      4  N   UNL     1      30.140  25.908  35.514  0.00  0.00    -0.234 NA
ATOM      5  C   UNL     1      29.002  27.909  34.529  0.00  0.00    +0.051 A 
ATOM      6  C   UNL     1      28.480  28.388  33.368  0.00  0.00    +0.049 A 
ATOM      7  C   UNL     1      28.509  27.599  32.202  0.00  0.00    +0.140 A 
ATOM      8  N   UNL     1      27.972  28.099  31.020  0.00  0.00    -0.325 N 
ATOM      9  H   UNL     1      27.580  28.986  31.002  0.00  0.00    +0.148 HD
ATOM     10  N   UNL     1      29.038  26.398  32.219  0.00  0.00    -0.150 NA
ATOM     11  C   UNL     1      30.522  24.731  35.030  0.00  0.00    +0.141 A 
ENDROOT
BRANCH   1  14
ATOM     12  C   UNL     1      30.038  21.271  32.103  0.00  0.00    +0.018 A 
ATOM     13  C   UNL     1      29.806  22.329  32.986  0.00  0.00    +0.021 A 
ATOM     14  C   UNL     1      30.421  23.559  32.764  0.00  0.00    +0.003 A 
ATOM     15  C   UNL     1      31.263  23.728  31.662  0.00  0.00    +0.010 A 
ATOM     16  C   UNL     1      31.487  22.680  30.792  0.00  0.00    +0.001 A 
ATOM     17  C   UNL     1      30.883  21.457  31.003  0.00  0.00    +0.011 A 
BRANCH  12  19
ATOM     18  C   UNL     1      28.711  19.258  31.186  0.00  0.00    +0.091 C 
ATOM     19  C   UNL     1      29.393  19.968  32.327  0.00  0.00    +0.160 C 
ATOM     20  O   UNL     1      29.410  19.464  33.431  0.00  0.00    -0.292 OA
ENDBRANCH  12  19
ENDBRANCH   1  14
BRANCH   8  21
ATOM     21  C   UNL     1      27.999  27.285  29.802  0.00  0.00    +0.076 C 
ATOM     22  C   UNL     1      26.608  27.276  29.160  0.00  0.00    +0.050 C 
ATOM     23  C   UNL     1      26.665  26.490  27.849  0.00  0.00    +0.161 C 
ATOM     24  O   UNL     1      27.639  27.077  26.983  0.00  0.00    -0.380 OA
ATOM     25  C   UNL     1      28.966  27.071  27.512  0.00  0.00    +0.161 C 
ATOM     26  C   UNL     1      29.003  27.881  28.810  0.00  0.00    +0.050 C 
ENDBRANCH   8  21
TORSDOF 3
ENDMDL
MODEL 3
REMARK VINA RESULT:      -4.8      7.690     11.676
REMARK  Name = 3OOM_507.pdb
REMARK  4 active torsions:
REMARK  status: ('A' for Active; 'I' for Inactive)
REMARK    1  A    between atoms: _1  and  _18
REMARK    2  A    between atoms: _16  and  _24
REMARK    3  A    between atoms: _18  and  _19
REMARK    4  A    between atoms: _20  and  _22
REMARK                            x       y       z     vdW  Elec       q    Type
REMARK                         _______ _______ _______ _____ _____    ______ ____
ROOT
ATOM      1  C   UNL     1      28.067  28.040  31.272  0.00  0.00    +0.093 A 
ATOM      2  N   UNL     1      28.586  27.378  32.354  0.00  0.00    -0.211 N 
ATOM      3  C   UNL     1      28.550  28.246  33.413  0.00  0.00    +0.155 A 
ATOM      4  N   UNL     1      28.029  29.395  32.997  0.00  0.00    -0.234 NA
ATOM      5  C   UNL     1      29.029  27.821  34.667  0.00  0.00    +0.051 A 
ATOM      6  C   UNL     1      29.518  26.558  34.799  0.00  0.00    +0.049 A 
ATOM      7  C   UNL     1      29.541  25.691  33.691  0.00  0.00    +0.140 A 
ATOM      8  N   UNL     1      30.043  24.401  33.837  0.00  0.00    -0.325 N 
ATOM      9  H   UNL     1      30.375  24.105  34.698  0.00  0.00    +0.148 HD
ATOM     10  N   UNL     1      29.094  26.086  32.522  0.00  0.00    -0.150 NA
ATOM     11  C   UNL     1      27.726  29.303  31.707  0.00  0.00    +0.141 A 
ENDROOT
BRANCH   1  14
ATOM     12  C   UNL     1      28.864  26.787  27.810  0.00  0.00    +0.018 A 
ATOM     13  C   UNL     1      29.025  27.293  29.102  0.00  0.00    +0.021 A 
ATOM     14  C   UNL     1      27.906  27.503  29.905  0.00  0.00    +0.003 A 
ATOM     15  C   UNL     1      26.632  27.208  29.414  0.00  0.00    +0.010 A 
ATOM     16  C   UNL     1      26.478  26.708  28.136  0.00  0.00    +0.001 A 
ATOM     17  C   UNL     1      27.581  26.496  27.333  0.00  0.00    +0.011 A 
BRANCH  12  19
ATOM     18  C   UNL     1      29.915  25.715  25.713  0.00  0.00    +0.091 C 
ATOM     19  C   UNL     1      30.039  26.560  26.954  0.00  0.00    +0.160 C 
ATOM     20  O   UNL     1      31.108  27.053  27.248  0.00  0.00    -0.292 OA
ENDBRANCH  12  19
ENDBRANCH   1  14
BRANCH   8  21
ATOM     21  C   UNL     1      30.071  23.492  32.688  0.00  0.00    +0.076 C 
ATOM     22  C   UNL     1      31.445  23.557  32.016  0.00  0.00    +0.050 C 
ATOM     23  C   UNL     1      31.492  22.548  30.867  0.00  0.00    +0.161 C 
ATOM     24  O   UNL     1      31.215  21.239  31.372  0.00  0.00    -0.380 OA
ATOM     25  C   UNL     1      29.924  21.107  31.970  0.00  0.00    +0.161 C 
ATOM     26  C   UNL     1      29.815  22.059  33.164  0.00  0.00    +0.050 C 
ENDBRANCH   8  21
TORSDOF 3
ENDMDL
MODEL 4
REMARK VINA RESULT:      -4.7     11.641     14.384
REMARK  Name = 3OOM_507.pdb
REMARK  4 active torsions:
REMARK  status: ('A' for Active; 'I' for Inactive)
REMARK    1  A    between atoms: _1  and  _18
REMARK    2  A    between atoms: _16  and  _24
REMARK    3  A    between atoms: _18  and  _19
REMARK    4  A    between atoms: _20  and  _22
REMARK                            x       y       z     vdW  Elec       q    Type
REMARK                         _______ _______ _______ _____ _____    ______ ____
ROOT
ATOM      1  C   UNL     1      19.326  13.957  15.230  0.00  0.00    +0.093 A 
ATOM      2  N   UNL     1      18.961  13.211  16.320  0.00  0.00    -0.211 N 
ATOM      3  C   UNL     1      18.286  12.115  15.850  0.00  0.00    +0.155 A 
ATOM      4  N   UNL     1      18.240  12.186  14.525  0.00  0.00    -0.234 NA
ATOM      5  C   UNL     1      17.792  11.167  16.767  0.00  0.00    +0.051 A 
ATOM      6  C   UNL     1      17.994  11.361  18.098  0.00  0.00    +0.049 A 
ATOM      7  C   UNL     1      18.692  12.498  18.548  0.00  0.00    +0.140 A 
ATOM      8  N   UNL     1      18.893  12.686  19.912  0.00  0.00    -0.325 N 
ATOM      9  H   UNL     1      18.553  12.037  20.547  0.00  0.00    +0.148 HD
ATOM     10  N   UNL     1      19.153  13.381  17.694  0.00  0.00    -0.150 NA
ATOM     11  C   UNL     1      18.859  13.289  14.118  0.00  0.00    +0.141 A 
ENDROOT
BRANCH   1  14
ATOM     12  C   UNL     1      20.196  17.593  14.767  0.00  0.00    +0.018 A 
ATOM     13  C   UNL     1      19.482  16.393  14.752  0.00  0.00    +0.021 A 
ATOM     14  C   UNL     1      20.073  15.232  15.245  0.00  0.00    +0.003 A 
ATOM     15  C   UNL     1      21.375  15.275  15.752  0.00  0.00    +0.010 A 
ATOM     16  C   UNL     1      22.076  16.464  15.765  0.00  0.00    +0.001 A 
ATOM     17  C   UNL     1      21.498  17.620  15.279  0.00  0.00    +0.011 A 
BRANCH  12  19
ATOM     18  C   UNL     1      18.223  19.254  14.743  0.00  0.00    +0.091 C 
ATOM     19  C   UNL     1      19.580  18.825  14.250  0.00  0.00    +0.160 C 
ATOM     20  O   UNL     1      20.166  19.496  13.425  0.00  0.00    -0.292 OA
ENDBRANCH  12  19
ENDBRANCH   1  14
BRANCH   8  21
ATOM     21  C   UNL     1      19.618  13.867  20.389  0.00  0.00    +0.076 C 
ATOM     22  C   UNL     1      18.937  14.414  21.647  0.00  0.00    +0.050 C 
ATOM     23  C   UNL     1      19.746  15.597  22.182  0.00  0.00    +0.161 C 
ATOM     24  O   UNL     1      21.085  15.176  22.450  0.00  0.00    -0.380 OA
ATOM     25  C   UNL     1      21.787  14.699  21.300  0.00  0.00    +0.161 C 
ATOM     26  C   UNL     1      21.060  13.479  20.729  0.00  0.00    +0.050 C 
ENDBRANCH   8  21
TORSDOF 3
ENDMDL
MODEL 5
REMARK VINA RESULT:      -4.7      8.881     12.487
REMARK  Name = 3OOM_507.pdb
REMARK  4 active torsions:
REMARK  status: ('A' for Active; 'I' for Inactive)
REMARK    1  A    between atoms: _1  and  _18
REMARK    2  A    between atoms: _16  and  _24
REMARK    3  A    between atoms: _18  and  _19
REMARK    4  A    between atoms: _20  and  _22
REMARK                            x       y       z     vdW  Elec       q    Type
REMARK                         _______ _______ _______ _____ _____    ______ ____
ROOT
ATOM      1  C   UNL     1      28.875  27.774  32.291  0.00  0.00    +0.093 A 
ATOM      2  N   UNL     1      29.134  26.943  33.349  0.00  0.00    -0.211 N 
ATOM      3  C   UNL     1      28.908  27.663  34.493  0.00  0.00    +0.155 A 
ATOM      4  N   UNL     1      28.525  28.887  34.149  0.00  0.00    -0.234 NA
ATOM      5  C   UNL     1      29.100  27.045  35.743  0.00  0.00    +0.051 A 
ATOM      6  C   UNL     1      29.507  25.748  35.789  0.00  0.00    +0.049 A 
ATOM      7  C   UNL     1      29.731  25.036  34.595  0.00  0.00    +0.140 A 
ATOM      8  N   UNL     1      30.146  23.709  34.653  0.00  0.00    -0.325 N 
ATOM      9  H   UNL     1      30.281  23.280  35.512  0.00  0.00    +0.148 HD
ATOM     10  N   UNL     1      29.551  25.611  33.429  0.00  0.00    -0.150 NA
ATOM     11  C   UNL     1      28.495  28.988  32.824  0.00  0.00    +0.141 A 
ENDROOT
BRANCH   1  14
ATOM     12  C   UNL     1      27.946  26.861  28.757  0.00  0.00    +0.018 A 
ATOM     13  C   UNL     1      27.834  27.183  30.112  0.00  0.00    +0.021 A 
ATOM     14  C   UNL     1      28.984  27.436  30.857  0.00  0.00    +0.003 A 
ATOM     15  C   UNL     1      30.239  27.367  30.246  0.00  0.00    +0.010 A 
ATOM     16  C   UNL     1      30.343  27.050  28.906  0.00  0.00    +0.001 A 
ATOM     17  C   UNL     1      29.210  26.797  28.160  0.00  0.00    +0.011 A 
BRANCH  12  19
ATOM     18  C   UNL     1      26.628  27.126  26.555  0.00  0.00    +0.091 C 
ATOM     19  C   UNL     1      26.738  26.593  27.960  0.00  0.00    +0.160 C 
ATOM     20  O   UNL     1      25.830  25.942  28.435  0.00  0.00    -0.292 OA
ENDBRANCH  12  19
ENDBRANCH   1  14
BRANCH   8  21
ATOM     21  C   UNL     1      30.382  22.961  33.415  0.00  0.00    +0.076 C 
ATOM     22  C   UNL     1      31.862  22.580  33.319  0.00  0.00    +0.050 C 
ATOM     23  C   UNL     1      32.083  21.732  32.065  0.00  0.00    +0.161 C 
ATOM     24  O   UNL     1      31.245  20.576  32.119  0.00  0.00    -0.380 OA
ATOM     25  C   UNL     1      29.848  20.870  32.162  0.00  0.00    +0.161 C 
ATOM     26  C   UNL     1      29.536  21.683  33.421  0.00  0.00    +0.050 C 
ENDBRANCH   8  21
TORSDOF 3
ENDMDL
MODEL 6
REMARK VINA RESULT:      -4.6     10.763     13.940
REMARK  Name = 3OOM_507.pdb
REMARK  4 active torsions:
REMARK  status: ('A' for Active; 'I' for Inactive)
REMARK    1  A    between atoms: _1  and  _18
REMARK    2  A    between atoms: _16  and  _24
REMARK    3  A    between atoms: _18  and  _19
REMARK    4  A    between atoms: _20  and  _22
REMARK                            x       y       z     vdW  Elec       q    Type
REMARK                         _______ _______ _______ _____ _____    ______ ____
ROOT
ATOM      1  C   UNL     1      19.121  14.495  14.714  0.00  0.00    +0.093 A 
ATOM      2  N   UNL     1      18.971  13.595  15.736  0.00  0.00    -0.211 N 
ATOM      3  C   UNL     1      18.406  12.468  15.201  0.00  0.00    +0.155 A 
ATOM      4  N   UNL     1      18.218  12.669  13.901  0.00  0.00    -0.234 NA
ATOM      5  C   UNL     1      18.138  11.368  16.038  0.00  0.00    +0.051 A 
ATOM      6  C   UNL     1      18.444  11.450  17.361  0.00  0.00    +0.049 A 
ATOM      7  C   UNL     1      19.024  12.623  17.880  0.00  0.00    +0.140 A 
ATOM      8  N   UNL     1      19.334  12.695  19.235  0.00  0.00    -0.325 N 
ATOM      9  H   UNL     1      19.150  11.941  19.816  0.00  0.00    +0.148 HD
ATOM     10  N   UNL     1      19.276  13.647  17.100  0.00  0.00    -0.150 NA
ATOM     11  C   UNL     1      18.640  13.886  13.575  0.00  0.00    +0.141 A 
ENDROOT
BRANCH   1  14
ATOM     12  C   UNL     1      21.544  17.321  15.296  0.00  0.00    +0.018 A 
ATOM     13  C   UNL     1      21.016  16.031  15.201  0.00  0.00    +0.021 A 
ATOM     14  C   UNL     1      19.689  15.856  14.815  0.00  0.00    +0.003 A 
ATOM     15  C   UNL     1      18.895  16.970  14.526  0.00  0.00    +0.010 A 
ATOM     16  C   UNL     1      19.423  18.242  14.621  0.00  0.00    +0.001 A 
ATOM     17  C   UNL     1      20.737  18.425  15.002  0.00  0.00    +0.011 A 
BRANCH  12  19
ATOM     18  C   UNL     1      23.269  18.354  16.912  0.00  0.00    +0.091 C 
ATOM     19  C   UNL     1      22.945  17.517  15.701  0.00  0.00    +0.160 C 
ATOM     20  O   UNL     1      23.839  17.005  15.061  0.00  0.00    -0.292 OA
ENDBRANCH  12  19
ENDBRANCH   1  14
BRANCH   8  21
ATOM     21  C   UNL     1      19.938  13.913  19.784  0.00  0.00    +0.076 C 
ATOM     22  C   UNL     1      19.190  14.330  21.053  0.00  0.00    +0.050 C 
ATOM     23  C   UNL     1      19.875  15.554  21.662  0.00  0.00    +0.161 C 
ATOM     24  O   UNL     1      21.244  15.246  21.936  0.00  0.00    -0.380 OA
ATOM     25  C   UNL     1      22.005  14.895  20.779  0.00  0.00    +0.161 C 
ATOM     26  C   UNL     1      21.405  13.643  20.134  0.00  0.00    +0.050 C 
ENDBRANCH   8  21
TORSDOF 3
ENDMDL
MODEL 7
REMARK VINA RESULT:      -4.6      8.336     11.139
REMARK  Name = 3OOM_507.pdb
REMARK  4 active torsions:
REMARK  status: ('A' for Active; 'I' for Inactive)
REMARK    1  A    between atoms: _1  and  _18
REMARK    2  A    between atoms: _16  and  _24
REMARK    3  A    between atoms: _18  and  _19
REMARK    4  A    between atoms: _20  and  _22
REMARK                            x       y       z     vdW  Elec       q    Type
REMARK                         _______ _______ _______ _____ _____    ______ ____
ROOT
ATOM      1  C   UNL     1      30.216  24.721  33.590  0.00  0.00    +0.093 A 
ATOM      2  N   UNL     1      29.586  25.904  33.305  0.00  0.00    -0.211 N 
ATOM      3  C   UNL     1      29.542  26.628  34.467  0.00  0.00    +0.155 A 
ATOM      4  N   UNL     1      30.122  25.917  35.427  0.00  0.00    -0.234 NA
ATOM      5  C   UNL     1      28.941  27.901  34.461  0.00  0.00    +0.051 A 
ATOM      6  C   UNL     1      28.416  28.384  33.302  0.00  0.00    +0.049 A 
ATOM      7  C   UNL     1      28.478  27.614  32.125  0.00  0.00    +0.140 A 
ATOM      8  N   UNL     1      27.939  28.118  30.945  0.00  0.00    -0.325 N 
ATOM      9  H   UNL     1      27.523  28.993  30.937  0.00  0.00    +0.148 HD
ATOM     10  N   UNL     1      29.039  26.428  32.129  0.00  0.00    -0.150 NA
ATOM     11  C   UNL     1      30.541  24.758  34.929  0.00  0.00    +0.141 A 
ENDROOT
BRANCH   1  14
ATOM     12  C   UNL     1      31.599  22.780  30.673  0.00  0.00    +0.018 A 
ATOM     13  C   UNL     1      31.345  23.826  31.563  0.00  0.00    +0.021 A 
ATOM     14  C   UNL     1      30.493  23.619  32.645  0.00  0.00    +0.003 A 
ATOM     15  C   UNL     1      29.898  22.368  32.834  0.00  0.00    +0.010 A 
ATOM     16  C   UNL     1      30.154  21.337  31.951  0.00  0.00    +0.001 A 
ATOM     17  C   UNL     1      30.997  21.533  30.877  0.00  0.00    +0.011 A 
BRANCH  12  19
ATOM     18  C   UNL     1      31.977  23.622  28.265  0.00  0.00    +0.091 C 
ATOM     19  C   UNL     1      32.499  22.987  29.527  0.00  0.00    +0.160 C 
ATOM     20  O   UNL     1      33.661  22.647  29.599  0.00  0.00    -0.292 OA
ENDBRANCH  12  19
ENDBRANCH   1  14
BRANCH   8  21
ATOM     21  C   UNL     1      27.999  27.323  29.715  0.00  0.00    +0.076 C 
ATOM     22  C   UNL     1      26.594  27.194  29.119  0.00  0.00    +0.050 C 
ATOM     23  C   UNL     1      26.678  26.431  27.795  0.00  0.00    +0.161 C 
ATOM     24  O   UNL     1      27.566  27.115  26.907  0.00  0.00    -0.380 OA
ATOM     25  C   UNL     1      28.905  27.224  27.392  0.00  0.00    +0.161 C 
ATOM     26  C   UNL     1      28.911  28.019  28.700  0.00  0.00    +0.050 C 
ENDBRANCH   8  21
TORSDOF 3
ENDMDL
MODEL 8
REMARK VINA RESULT:      -4.5     11.960     15.573
REMARK  Name = 3OOM_507.pdb
REMARK  4 active torsions:
REMARK  status: ('A' for Active; 'I' for Inactive)
REMARK    1  A    between atoms: _1  and  _18
REMARK    2  A    between atoms: _16  and  _24
REMARK    3  A    between atoms: _18  and  _19
REMARK    4  A    between atoms: _20  and  _22
REMARK                            x       y       z     vdW  Elec       q    Type
REMARK                         _______ _______ _______ _____ _____    ______ ____
ROOT
ATOM      1  C   UNL     1      18.123  12.261  20.405  0.00  0.00    +0.093 A 
ATOM      2  N   UNL     1      17.931  11.141  21.171  0.00  0.00    -0.211 N 
ATOM      3  C   UNL     1      17.018  10.356  20.518  0.00  0.00    +0.155 A 
ATOM      4  N   UNL     1      16.664  10.971  19.395  0.00  0.00    -0.234 NA
ATOM      5  C   UNL     1      16.632   9.129  21.089  0.00  0.00    +0.051 A 
ATOM      6  C   UNL     1      17.173   8.749  22.278  0.00  0.00    +0.049 A 
ATOM      7  C   UNL     1      18.109   9.579  22.924  0.00  0.00    +0.140 A 
ATOM      8  N   UNL     1      18.657   9.181  24.140  0.00  0.00    -0.325 N 
ATOM      9  H   UNL     1      18.393   8.337  24.538  0.00  0.00    +0.148 HD
ATOM     10  N   UNL     1      18.470  10.723  22.392  0.00  0.00    -0.150 NA
ATOM     11  C   UNL     1      17.315  12.126  19.296  0.00  0.00    +0.141 A 
ENDROOT
BRANCH   1  14
ATOM     12  C   UNL     1      21.143  14.512  20.450  0.00  0.00    +0.018 A 
ATOM     13  C   UNL     1      20.299  13.438  20.155  0.00  0.00    +0.021 A 
ATOM     14  C   UNL     1      19.022  13.394  20.709  0.00  0.00    +0.003 A 
ATOM     15  C   UNL     1      18.593  14.421  21.554  0.00  0.00    +0.010 A 
ATOM     16  C   UNL     1      19.431  15.480  21.841  0.00  0.00    +0.001 A 
ATOM     17  C   UNL     1      20.699  15.533  21.297  0.00  0.00    +0.011 A 
BRANCH  12  19
ATOM     18  C   UNL     1      23.703  14.532  20.768  0.00  0.00    +0.091 C 
ATOM     19  C   UNL     1      22.494  14.569  19.869  0.00  0.00    +0.160 C 
ATOM     20  O   UNL     1      22.634  14.648  18.666  0.00  0.00    -0.292 OA
ENDBRANCH  12  19
ENDBRANCH   1  14
BRANCH   8  21
ATOM     21  C   UNL     1      19.632  10.038  24.819  0.00  0.00    +0.076 C 
ATOM     22  C   UNL     1      19.361  10.030  26.327  0.00  0.00    +0.050 C 
ATOM     23  C   UNL     1      20.431  10.863  27.035  0.00  0.00    +0.161 C 
ATOM     24  O   UNL     1      21.724  10.336  26.731  0.00  0.00    -0.380 OA
ATOM     25  C   UNL     1      22.051  10.362  25.340  0.00  0.00    +0.161 C 
ATOM     26  C   UNL     1      21.046   9.508  24.563  0.00  0.00    +0.050 C 
ENDBRANCH   8  21
TORSDOF 3
ENDMDL
MODEL 9
REMARK VINA RESULT:      -4.5      3.980      7.673
REMARK  Name = 3OOM_507.pdb
REMARK  4 active torsions:
REMARK  status: ('A' for Active; 'I' for Inactive)
REMARK    1  A    between atoms: _1  and  _18
REMARK    2  A    between atoms: _16  and  _24
REMARK    3  A    between atoms: _18  and  _19
REMARK    4  A    between atoms: _20  and  _22
REMARK                            x       y       z     vdW  Elec       q    Type
REMARK                         _______ _______ _______ _____ _____    ______ ____
ROOT
ATOM      1  C   UNL     1      29.034  21.046  21.409  0.00  0.00    +0.093 A 
ATOM      2  N   UNL     1      28.216  19.999  21.071  0.00  0.00    -0.211 N 
ATOM      3  C   UNL     1      28.233  19.119  22.120  0.00  0.00    +0.155 A 
ATOM      4  N   UNL     1      29.030  19.607  23.065  0.00  0.00    -0.234 NA
ATOM      5  C   UNL     1      27.470  17.939  22.040  0.00  0.00    +0.051 A 
ATOM      6  C   UNL     1      26.733  17.698  20.922  0.00  0.00    +0.049 A 
ATOM      7  C   UNL     1      26.738  18.623  19.861  0.00  0.00    +0.140 A 
ATOM      8  N   UNL     1      25.980  18.367  18.721  0.00  0.00    -0.325 N 
ATOM      9  H   UNL     1      25.454  17.555  18.661  0.00  0.00    +0.148 HD
ATOM     10  N   UNL     1      27.448  19.723  19.935  0.00  0.00    -0.150 NA
ATOM     11  C   UNL     1      29.530  20.771  22.665  0.00  0.00    +0.141 A 
ENDROOT
BRANCH   1  14
ATOM     12  C   UNL     1      30.300  23.231  18.614  0.00  0.00    +0.018 A 
ATOM     13  C   UNL     1      30.025  22.100  19.386  0.00  0.00    +0.021 A 
ATOM     14  C   UNL     1      29.328  22.237  20.584  0.00  0.00    +0.003 A 
ATOM     15  C   UNL     1      28.909  23.501  21.006  0.00  0.00    +0.010 A 
ATOM     16  C   UNL     1      29.184  24.616  20.239  0.00  0.00    +0.001 A 
ATOM     17  C   UNL     1      29.874  24.491  19.050  0.00  0.00    +0.011 A 
BRANCH  12  19
ATOM     18  C   UNL     1      30.304  23.230  16.035  0.00  0.00    +0.091 C 
ATOM     19  C   UNL     1      31.035  23.098  17.346  0.00  0.00    +0.160 C 
ATOM     20  O   UNL     1      32.229  22.883  17.356  0.00  0.00    -0.292 OA
ENDBRANCH  12  19
ENDBRANCH   1  14
BRANCH   8  21
ATOM     21  C   UNL     1      25.979  19.324  17.613  0.00  0.00    +0.076 C 
ATOM     22  C   UNL     1      26.859  18.794  16.476  0.00  0.00    +0.050 C 
ATOM     23  C   UNL     1      26.789  19.762  15.293  0.00  0.00    +0.161 C 
ATOM     24  O   UNL     1      25.428  19.910  14.879  0.00  0.00    -0.380 OA
ATOM     25  C   UNL     1      24.569  20.447  15.887  0.00  0.00    +0.161 C 
ATOM     26  C   UNL     1      24.549  19.506  17.095  0.00  0.00    +0.050 C 
ENDBRANCH   8  21
TORSDOF 3
ENDMDL
