MODEL 1
REMARK VINA RESULT:      -8.0      0.000      0.000
REMARK  Name = 3MTF_A3F.pdb
REMARK  5 active torsions:
REMARK  status: ('A' for Active; 'I' for Inactive)
REMARK    1  A    between atoms: _14  and  _15
REMARK    2  A    between atoms: _16  and  _19
REMARK    3  A    between atoms: _17  and  _24
REMARK    4  A    between atoms: _18  and  _25
REMARK    5  A    between atoms: _20  and  _26
REMARK                            x       y       z     vdW  Elec       q    Type
REMARK                         _______ _______ _______ _____ _____    ______ ____
ROOT
ATOM      1  C   UNL     1       6.599  26.663  16.300  0.00  0.00    +0.035 A 
ATOM      2  C   UNL     1       7.021  27.912  16.706  0.00  0.00    +0.170 A 
ATOM      3  N   UNL     1       6.977  28.953  15.863  0.00  0.00    -0.226 NA
ATOM      4  C   UNL     1       6.537  28.879  14.636  0.00  0.00    +0.100 A 
ATOM      5  C   UNL     1       6.012  27.679  14.176  0.00  0.00    +0.019 A 
ATOM      6  N   UNL     1       7.580  28.036  17.904  0.00  0.00    -0.107 NA
ATOM      7  C   UNL     1       6.089  26.556  15.005  0.00  0.00    +0.004 A 
ENDROOT
BRANCH   5   8
ATOM      8  C   UNL     1       5.562  27.587  12.844  0.00  0.00    +0.005 A 
ATOM      9  C   UNL     1       5.514  26.335  12.259  0.00  0.00    +0.042 A 
ATOM     10  C   UNL     1       5.139  26.182  10.934  0.00  0.00    +0.196 A 
ATOM     11  O   UNL     1       5.122  24.931  10.413  0.00  0.00    -0.287 OA
ATOM     12  C   UNL     1       4.829  27.280  10.141  0.00  0.00    +0.042 A 
ATOM     13  C   UNL     1       4.917  28.545  10.718  0.00  0.00    +0.003 A 
ATOM     14  C   UNL     1       5.303  28.706  12.057  0.00  0.00    +0.000 A 
ENDBRANCH   5   8
BRANCH   1  19
ATOM     15  C   UNL     1       7.411  23.252  17.610  0.00  0.00    +0.175 A 
ATOM     16  C   UNL     1       6.889  23.353  18.891  0.00  0.00    +0.206 A 
ATOM     17  C   UNL     1       6.234  24.511  19.305  0.00  0.00    +0.175 A 
ATOM     18  C   UNL     1       6.135  25.601  18.450  0.00  0.00    +0.040 A 
ATOM     19  C   UNL     1       6.646  25.532  17.155  0.00  0.00    +0.009 A 
ATOM     20  C   UNL     1       7.290  24.356  16.759  0.00  0.00    +0.040 A 
BRANCH  15  22
ATOM     21  C   UNL     1       7.284  21.069  16.433  0.00  0.00    +0.253 C 
ATOM     22  O   UNL     1       8.028  22.061  17.224  0.00  0.00    -0.468 OA
ENDBRANCH  15  22
BRANCH  16  23
ATOM     23  O   UNL     1       6.992  22.323  19.775  0.00  0.00    -0.465 OA
ATOM     24  C   UNL     1       8.206  22.386  20.503  0.00  0.00    +0.253 C 
ENDBRANCH  16  23
BRANCH  17  25
ATOM     25  O   UNL     1       5.719  24.506  20.562  0.00  0.00    -0.468 OA
ATOM     26  C   UNL     1       5.379  25.788  21.110  0.00  0.00    +0.253 C 
ENDBRANCH  17  25
ENDBRANCH   1  19
TORSDOF 5
ENDMDL
MODEL 2
REMARK VINA RESULT:      -7.8      0.778      2.553
REMARK  Name = 3MTF_A3F.pdb
REMARK  5 active torsions:
REMARK  status: ('A' for Active; 'I' for Inactive)
REMARK    1  A    between atoms: _14  and  _15
REMARK    2  A    between atoms: _16  and  _19
REMARK    3  A    between atoms: _17  and  _24
REMARK    4  A    between atoms: _18  and  _25
REMARK    5  A    between atoms: _20  and  _26
REMARK                            x       y       z     vdW  Elec       q    Type
REMARK                         _______ _______ _______ _____ _____    ______ ____
ROOT
ATOM      1  C   UNL     1       6.489  26.438  15.977  0.00  0.00    +0.035 A 
ATOM      2  C   UNL     1       6.847  27.664  16.498  0.00  0.00    +0.170 A 
ATOM      3  N   UNL     1       6.771  28.772  15.745  0.00  0.00    -0.226 NA
ATOM      4  C   UNL     1       6.358  28.784  14.507  0.00  0.00    +0.100 A 
ATOM      5  C   UNL     1       5.896  27.606  13.935  0.00  0.00    +0.019 A 
ATOM      6  N   UNL     1       7.378  27.709  17.714  0.00  0.00    -0.107 NA
ATOM      7  C   UNL     1       6.009  26.421  14.667  0.00  0.00    +0.004 A 
ENDROOT
BRANCH   5   8
ATOM      8  C   UNL     1       5.475  27.610  12.591  0.00  0.00    +0.005 A 
ATOM      9  C   UNL     1       5.432  26.401  11.919  0.00  0.00    +0.042 A 
ATOM     10  C   UNL     1       5.086  26.342  10.580  0.00  0.00    +0.196 A 
ATOM     11  O   UNL     1       5.074  25.130   9.973  0.00  0.00    -0.287 OA
ATOM     12  C   UNL     1       4.801  27.494   9.857  0.00  0.00    +0.042 A 
ATOM     13  C   UNL     1       4.884  28.716  10.522  0.00  0.00    +0.003 A 
ATOM     14  C   UNL     1       5.241  28.782  11.877  0.00  0.00    +0.000 A 
ENDBRANCH   5   8
BRANCH   1  19
ATOM     15  C   UNL     1       6.413  24.078  18.882  0.00  0.00    +0.175 A 
ATOM     16  C   UNL     1       6.571  22.870  18.218  0.00  0.00    +0.206 A 
ATOM     17  C   UNL     1       6.750  22.834  16.837  0.00  0.00    +0.175 A 
ATOM     18  C   UNL     1       6.726  24.009  16.098  0.00  0.00    +0.040 A 
ATOM     19  C   UNL     1       6.572  25.240  16.734  0.00  0.00    +0.009 A 
ATOM     20  C   UNL     1       6.405  25.253  18.122  0.00  0.00    +0.040 A 
BRANCH  15  22
ATOM     21  C   UNL     1       5.741  25.257  20.962  0.00  0.00    +0.253 C 
ATOM     22  O   UNL     1       6.272  24.072  20.271  0.00  0.00    -0.468 OA
ENDBRANCH  15  22
BRANCH  16  23
ATOM     23  O   UNL     1       6.567  21.690  18.897  0.00  0.00    -0.465 OA
ATOM     24  C   UNL     1       7.873  21.326  19.306  0.00  0.00    +0.253 C 
ENDBRANCH  16  23
BRANCH  17  25
ATOM     25  O   UNL     1       6.938  21.610  16.276  0.00  0.00    -0.468 OA
ATOM     26  C   UNL     1       5.821  21.068  15.557  0.00  0.00    +0.253 C 
ENDBRANCH  17  25
ENDBRANCH   1  19
TORSDOF 5
ENDMDL
MODEL 3
REMARK VINA RESULT:      -7.7      2.578      3.265
REMARK  Name = 3MTF_A3F.pdb
REMARK  5 active torsions:
REMARK  status: ('A' for Active; 'I' for Inactive)
REMARK    1  A    between atoms: _14  and  _15
REMARK    2  A    between atoms: _16  and  _19
REMARK    3  A    between atoms: _17  and  _24
REMARK    4  A    between atoms: _18  and  _25
REMARK    5  A    between atoms: _20  and  _26
REMARK                            x       y       z     vdW  Elec       q    Type
REMARK                         _______ _______ _______ _____ _____    ______ ____
ROOT
ATOM      1  C   UNL     1       6.185  23.423  15.988  0.00  0.00    +0.035 A 
ATOM      2  C   UNL     1       5.668  22.330  15.325  0.00  0.00    +0.170 A 
ATOM      3  N   UNL     1       5.091  22.473  14.123  0.00  0.00    -0.226 NA
ATOM      4  C   UNL     1       4.983  23.614  13.498  0.00  0.00    +0.100 A 
ATOM      5  C   UNL     1       5.556  24.748  14.056  0.00  0.00    +0.019 A 
ATOM      6  N   UNL     1       5.647  21.158  15.950  0.00  0.00    -0.107 NA
ATOM      7  C   UNL     1       6.119  24.653  15.332  0.00  0.00    +0.004 A 
ENDROOT
BRANCH   5   8
ATOM      8  C   UNL     1       5.418  25.987  13.398  0.00  0.00    +0.005 A 
ATOM      9  C   UNL     1       5.271  25.979  12.022  0.00  0.00    +0.042 A 
ATOM     10  C   UNL     1       5.191  27.163  11.308  0.00  0.00    +0.196 A 
ATOM     11  O   UNL     1       5.061  27.092   9.961  0.00  0.00    -0.287 OA
ATOM     12  C   UNL     1       5.286  28.396  11.943  0.00  0.00    +0.042 A 
ATOM     13  C   UNL     1       5.476  28.404  13.323  0.00  0.00    +0.003 A 
ATOM     14  C   UNL     1       5.564  27.208  14.050  0.00  0.00    +0.000 A 
ENDBRANCH   5   8
BRANCH   1  19
ATOM     15  C   UNL     1       8.753  22.856  18.652  0.00  0.00    +0.175 A 
ATOM     16  C   UNL     1       8.037  23.261  19.770  0.00  0.00    +0.206 A 
ATOM     17  C   UNL     1       6.710  23.668  19.657  0.00  0.00    +0.175 A 
ATOM     18  C   UNL     1       6.098  23.719  18.411  0.00  0.00    +0.040 A 
ATOM     19  C   UNL     1       6.788  23.317  17.269  0.00  0.00    +0.009 A 
ATOM     20  C   UNL     1       8.116  22.902  17.408  0.00  0.00    +0.040 A 
BRANCH  15  22
ATOM     21  C   UNL     1      11.187  23.343  18.556  0.00  0.00    +0.253 C 
ATOM     22  O   UNL     1      10.070  22.421  18.815  0.00  0.00    -0.468 OA
ENDBRANCH  15  22
BRANCH  16  23
ATOM     23  O   UNL     1       8.606  23.259  21.006  0.00  0.00    -0.465 OA
ATOM     24  C   UNL     1       8.462  22.000  21.640  0.00  0.00    +0.253 C 
ENDBRANCH  16  23
BRANCH  17  25
ATOM     25  O   UNL     1       6.074  24.008  20.809  0.00  0.00    -0.468 OA
ATOM     26  C   UNL     1       5.690  25.385  20.935  0.00  0.00    +0.253 C 
ENDBRANCH  17  25
ENDBRANCH   1  19
TORSDOF 5
ENDMDL
MODEL 4
REMARK VINA RESULT:      -7.5      2.724      7.818
REMARK  Name = 3MTF_A3F.pdb
REMARK  5 active torsions:
REMARK  status: ('A' for Active; 'I' for Inactive)
REMARK    1  A    between atoms: _14  and  _15
REMARK    2  A    between atoms: _16  and  _19
REMARK    3  A    between atoms: _17  and  _24
REMARK    4  A    between atoms: _18  and  _25
REMARK    5  A    between atoms: _20  and  _26
REMARK                            x       y       z     vdW  Elec       q    Type
REMARK                         _______ _______ _______ _____ _____    ______ ____
ROOT
ATOM      1  C   UNL     1       7.093  24.424  15.672  0.00  0.00    +0.035 A 
ATOM      2  C   UNL     1       8.392  23.961  15.666  0.00  0.00    +0.170 A 
ATOM      3  N   UNL     1       9.035  23.722  16.818  0.00  0.00    -0.226 NA
ATOM      4  C   UNL     1       8.501  23.890  17.999  0.00  0.00    +0.100 A 
ATOM      5  C   UNL     1       7.169  24.268  18.092  0.00  0.00    +0.019 A 
ATOM      6  N   UNL     1       9.031  23.871  14.506  0.00  0.00    -0.107 NA
ATOM      7  C   UNL     1       6.481  24.580  16.916  0.00  0.00    +0.004 A 
ENDROOT
BRANCH   5   8
ATOM      8  C   UNL     1       6.598  24.478  19.363  0.00  0.00    +0.005 A 
ATOM      9  C   UNL     1       5.736  25.547  19.520  0.00  0.00    +0.042 A 
ATOM     10  C   UNL     1       5.187  25.845  20.757  0.00  0.00    +0.196 A 
ATOM     11  O   UNL     1       4.358  26.913  20.851  0.00  0.00    -0.287 OA
ATOM     12  C   UNL     1       5.508  25.100  21.885  0.00  0.00    +0.042 A 
ATOM     13  C   UNL     1       6.410  24.048  21.736  0.00  0.00    +0.003 A 
ATOM     14  C   UNL     1       6.973  23.747  20.487  0.00  0.00    +0.000 A 
ENDBRANCH   5   8
BRANCH   1  19
ATOM     15  C   UNL     1       5.784  26.269  12.689  0.00  0.00    +0.175 A 
ATOM     16  C   UNL     1       5.128  25.237  12.034  0.00  0.00    +0.206 A 
ATOM     17  C   UNL     1       5.074  23.960  12.589  0.00  0.00    +0.175 A 
ATOM     18  C   UNL     1       5.719  23.692  13.789  0.00  0.00    +0.040 A 
ATOM     19  C   UNL     1       6.384  24.707  14.475  0.00  0.00    +0.009 A 
ATOM     20  C   UNL     1       6.416  25.983  13.904  0.00  0.00    +0.040 A 
BRANCH  15  22
ATOM     21  C   UNL     1       5.385  28.710  12.916  0.00  0.00    +0.253 C 
ATOM     22  O   UNL     1       5.784  27.541  12.115  0.00  0.00    -0.468 OA
ENDBRANCH  15  22
BRANCH  16  23
ATOM     23  O   UNL     1       4.511  25.444  10.838  0.00  0.00    -0.465 OA
ATOM     24  C   UNL     1       5.421  25.323   9.759  0.00  0.00    +0.253 C 
ENDBRANCH  16  23
BRANCH  17  25
ATOM     25  O   UNL     1       4.377  23.021  11.897  0.00  0.00    -0.468 OA
ATOM     26  C   UNL     1       4.826  21.666  12.043  0.00  0.00    +0.253 C 
ENDBRANCH  17  25
ENDBRANCH   1  19
TORSDOF 5
ENDMDL
MODEL 5
REMARK VINA RESULT:      -7.5      2.570      4.006
REMARK  Name = 3MTF_A3F.pdb
REMARK  5 active torsions:
REMARK  status: ('A' for Active; 'I' for Inactive)
REMARK    1  A    between atoms: _14  and  _15
REMARK    2  A    between atoms: _16  and  _19
REMARK    3  A    between atoms: _17  and  _24
REMARK    4  A    between atoms: _18  and  _25
REMARK    5  A    between atoms: _20  and  _26
REMARK                            x       y       z     vdW  Elec       q    Type
REMARK                         _______ _______ _______ _____ _____    ______ ____
ROOT
ATOM      1  C   UNL     1       6.590  23.478  16.398  0.00  0.00    +0.035 A 
ATOM      2  C   UNL     1       6.092  22.373  15.741  0.00  0.00    +0.170 A 
ATOM      3  N   UNL     1       5.469  22.506  14.561  0.00  0.00    -0.226 NA
ATOM      4  C   UNL     1       5.297  23.649  13.953  0.00  0.00    +0.100 A 
ATOM      5  C   UNL     1       5.846  24.798  14.504  0.00  0.00    +0.019 A 
ATOM      6  N   UNL     1       6.135  21.195  16.352  0.00  0.00    -0.107 NA
ATOM      7  C   UNL     1       6.456  24.711  15.759  0.00  0.00    +0.004 A 
ENDROOT
BRANCH   5   8
ATOM      8  C   UNL     1       5.640  26.037  13.866  0.00  0.00    +0.005 A 
ATOM      9  C   UNL     1       5.436  26.038  12.497  0.00  0.00    +0.042 A 
ATOM     10  C   UNL     1       5.287  27.225  11.800  0.00  0.00    +0.196 A 
ATOM     11  O   UNL     1       5.102  27.162  10.458  0.00  0.00    -0.287 OA
ATOM     12  C   UNL     1       5.368  28.454  12.443  0.00  0.00    +0.042 A 
ATOM     13  C   UNL     1       5.616  28.456  13.814  0.00  0.00    +0.003 A 
ATOM     14  C   UNL     1       5.774  27.257  14.524  0.00  0.00    +0.000 A 
ENDBRANCH   5   8
BRANCH   1  19
ATOM     15  C   UNL     1       7.141  23.452  20.101  0.00  0.00    +0.175 A 
ATOM     16  C   UNL     1       8.464  23.036  20.147  0.00  0.00    +0.206 A 
ATOM     17  C   UNL     1       9.183  22.813  18.975  0.00  0.00    +0.175 A 
ATOM     18  C   UNL     1       8.566  22.962  17.739  0.00  0.00    +0.040 A 
ATOM     19  C   UNL     1       7.240  23.381  17.657  0.00  0.00    +0.009 A 
ATOM     20  C   UNL     1       6.542  23.608  18.847  0.00  0.00    +0.040 A 
BRANCH  15  22
ATOM     21  C   UNL     1       5.849  25.011  21.540  0.00  0.00    +0.253 C 
ATOM     22  O   UNL     1       6.468  23.698  21.299  0.00  0.00    -0.468 OA
ENDBRANCH  15  22
BRANCH  16  23
ATOM     23  O   UNL     1       9.098  22.845  21.336  0.00  0.00    -0.465 OA
ATOM     24  C   UNL     1       8.968  21.506  21.781  0.00  0.00    +0.253 C 
ENDBRANCH  16  23
BRANCH  17  25
ATOM     25  O   UNL     1      10.483  22.447  19.115  0.00  0.00    -0.468 OA
ATOM     26  C   UNL     1      11.456  23.361  18.589  0.00  0.00    +0.253 C 
ENDBRANCH  17  25
ENDBRANCH   1  19
TORSDOF 5
ENDMDL
MODEL 6
REMARK VINA RESULT:      -7.4      9.884     11.156
REMARK  Name = 3MTF_A3F.pdb
REMARK  5 active torsions:
REMARK  status: ('A' for Active; 'I' for Inactive)
REMARK    1  A    between atoms: _14  and  _15
REMARK    2  A    between atoms: _16  and  _19
REMARK    3  A    between atoms: _17  and  _24
REMARK    4  A    between atoms: _18  and  _25
REMARK    5  A    between atoms: _20  and  _26
REMARK                            x       y       z     vdW  Elec       q    Type
REMARK                         _______ _______ _______ _____ _____    ______ ____
ROOT
ATOM      1  C   UNL     1      16.529  23.489  16.744  0.00  0.00    +0.035 A 
ATOM      2  C   UNL     1      16.202  22.368  16.010  0.00  0.00    +0.170 A 
ATOM      3  N   UNL     1      16.330  22.367  14.675  0.00  0.00    -0.226 NA
ATOM      4  C   UNL     1      16.768  23.385  13.984  0.00  0.00    +0.100 A 
ATOM      5  C   UNL     1      17.201  24.521  14.653  0.00  0.00    +0.019 A 
ATOM      6  N   UNL     1      15.649  21.336  16.636  0.00  0.00    -0.107 NA
ATOM      7  C   UNL     1      17.035  24.583  16.040  0.00  0.00    +0.004 A 
ENDROOT
BRANCH   5   8
ATOM      8  C   UNL     1      17.649  25.631  13.910  0.00  0.00    +0.005 A 
ATOM      9  C   UNL     1      17.843  26.826  14.579  0.00  0.00    +0.042 A 
ATOM     10  C   UNL     1      18.223  27.971  13.898  0.00  0.00    +0.196 A 
ATOM     11  O   UNL     1      18.387  29.115  14.607  0.00  0.00    -0.287 OA
ATOM     12  C   UNL     1      18.392  27.966  12.519  0.00  0.00    +0.042 A 
ATOM     13  C   UNL     1      18.156  26.773  11.839  0.00  0.00    +0.003 A 
ATOM     14  C   UNL     1      17.764  25.613  12.523  0.00  0.00    +0.000 A 
ENDBRANCH   5   8
BRANCH   1  19
ATOM     15  C   UNL     1      17.362  23.280  20.387  0.00  0.00    +0.175 A 
ATOM     16  C   UNL     1      16.189  23.783  20.934  0.00  0.00    +0.206 A 
ATOM     17  C   UNL     1      15.118  24.141  20.118  0.00  0.00    +0.175 A 
ATOM     18  C   UNL     1      15.229  24.042  18.737  0.00  0.00    +0.040 A 
ATOM     19  C   UNL     1      16.391  23.538  18.156  0.00  0.00    +0.009 A 
ATOM     20  C   UNL     1      17.449  23.175  18.995  0.00  0.00    +0.040 A 
BRANCH  15  22
ATOM     21  C   UNL     1      19.041  21.587  21.081  0.00  0.00    +0.253 C 
ATOM     22  O   UNL     1      18.397  22.900  21.243  0.00  0.00    -0.468 OA
ENDBRANCH  15  22
BRANCH  16  23
ATOM     23  O   UNL     1      16.049  23.929  22.279  0.00  0.00    -0.465 OA
ATOM     24  C   UNL     1      15.528  22.754  22.875  0.00  0.00    +0.253 C 
ENDBRANCH  16  23
BRANCH  17  25
ATOM     25  O   UNL     1      13.996  24.586  20.741  0.00  0.00    -0.468 OA
ATOM     26  C   UNL     1      12.793  23.852  20.474  0.00  0.00    +0.253 C 
ENDBRANCH  17  25
ENDBRANCH   1  19
TORSDOF 5
ENDMDL
MODEL 7
REMARK VINA RESULT:      -7.4      3.403      6.765
REMARK  Name = 3MTF_A3F.pdb
REMARK  5 active torsions:
REMARK  status: ('A' for Active; 'I' for Inactive)
REMARK    1  A    between atoms: _14  and  _15
REMARK    2  A    between atoms: _16  and  _19
REMARK    3  A    between atoms: _17  and  _24
REMARK    4  A    between atoms: _18  and  _25
REMARK    5  A    between atoms: _20  and  _26
REMARK                            x       y       z     vdW  Elec       q    Type
REMARK                         _______ _______ _______ _____ _____    ______ ____
ROOT
ATOM      1  C   UNL     1       6.811  26.741  14.828  0.00  0.00    +0.035 A 
ATOM      2  C   UNL     1       6.282  27.954  15.216  0.00  0.00    +0.170 A 
ATOM      3  N   UNL     1       6.982  28.781  16.006  0.00  0.00    -0.226 NA
ATOM      4  C   UNL     1       8.183  28.522  16.450  0.00  0.00    +0.100 A 
ATOM      5  C   UNL     1       8.822  27.362  16.034  0.00  0.00    +0.019 A 
ATOM      6  N   UNL     1       5.025  28.234  14.891  0.00  0.00    -0.107 NA
ATOM      7  C   UNL     1       8.107  26.448  15.255  0.00  0.00    +0.004 A 
ENDROOT
BRANCH   5   8
ATOM      8  C   UNL     1      10.106  27.065  16.533  0.00  0.00    +0.005 A 
ATOM      9  C   UNL     1      11.198  27.620  15.889  0.00  0.00    +0.042 A 
ATOM     10  C   UNL     1      12.489  27.321  16.290  0.00  0.00    +0.196 A 
ATOM     11  O   UNL     1      13.519  27.886  15.613  0.00  0.00    -0.287 OA
ATOM     12  C   UNL     1      12.733  26.431  17.330  0.00  0.00    +0.042 A 
ATOM     13  C   UNL     1      11.636  25.840  17.951  0.00  0.00    +0.003 A 
ATOM     14  C   UNL     1      10.326  26.134  17.544  0.00  0.00    +0.000 A 
ENDBRANCH   5   8
BRANCH   1  19
ATOM     15  C   UNL     1       5.221  25.196  11.812  0.00  0.00    +0.175 A 
ATOM     16  C   UNL     1       4.831  23.974  12.341  0.00  0.00    +0.206 A 
ATOM     17  C   UNL     1       5.044  23.680  13.686  0.00  0.00    +0.175 A 
ATOM     18  C   UNL     1       5.694  24.592  14.507  0.00  0.00    +0.040 A 
ATOM     19  C   UNL     1       6.095  25.830  14.008  0.00  0.00    +0.009 A 
ATOM     20  C   UNL     1       5.862  26.108  12.657  0.00  0.00    +0.040 A 
BRANCH  15  22
ATOM     21  C   UNL     1       6.052  25.851   9.565  0.00  0.00    +0.253 C 
ATOM     22  O   UNL     1       4.956  25.465  10.468  0.00  0.00    -0.468 OA
ENDBRANCH  15  22
BRANCH  16  23
ATOM     23  O   UNL     1       4.222  23.036  11.567  0.00  0.00    -0.465 OA
ATOM     24  C   UNL     1       5.170  22.238  10.880  0.00  0.00    +0.253 C 
ENDBRANCH  16  23
BRANCH  17  25
ATOM     25  O   UNL     1       4.594  22.476  14.127  0.00  0.00    -0.468 OA
ATOM     26  C   UNL     1       5.586  21.592  14.670  0.00  0.00    +0.253 C 
ENDBRANCH  17  25
ENDBRANCH   1  19
TORSDOF 5
ENDMDL
MODEL 8
REMARK VINA RESULT:      -7.2      5.430      7.523
REMARK  Name = 3MTF_A3F.pdb
REMARK  5 active torsions:
REMARK  status: ('A' for Active; 'I' for Inactive)
REMARK    1  A    between atoms: _14  and  _15
REMARK    2  A    between atoms: _16  and  _19
REMARK    3  A    between atoms: _17  and  _24
REMARK    4  A    between atoms: _18  and  _25
REMARK    5  A    between atoms: _20  and  _26
REMARK                            x       y       z     vdW  Elec       q    Type
REMARK                         _______ _______ _______ _____ _____    ______ ____
ROOT
ATOM      1  C   UNL     1      11.039  26.452  16.785  0.00  0.00    +0.035 A 
ATOM      2  C   UNL     1      10.731  27.336  15.773  0.00  0.00    +0.170 A 
ATOM      3  N   UNL     1       9.453  27.631  15.492  0.00  0.00    -0.226 NA
ATOM      4  C   UNL     1       8.432  27.132  16.136  0.00  0.00    +0.100 A 
ATOM      5  C   UNL     1       8.658  26.303  17.225  0.00  0.00    +0.019 A 
ATOM      6  N   UNL     1      11.714  27.797  15.008  0.00  0.00    -0.107 NA
ATOM      7  C   UNL     1       9.973  25.928  17.517  0.00  0.00    +0.004 A 
ENDROOT
BRANCH   5   8
ATOM      8  C   UNL     1       7.559  25.741  17.905  0.00  0.00    +0.005 A 
ATOM      9  C   UNL     1       7.517  24.365  18.048  0.00  0.00    +0.042 A 
ATOM     10  C   UNL     1       6.436  23.745  18.652  0.00  0.00    +0.196 A 
ATOM     11  O   UNL     1       6.446  22.393  18.753  0.00  0.00    -0.287 OA
ATOM     12  C   UNL     1       5.346  24.477  19.106  0.00  0.00    +0.042 A 
ATOM     13  C   UNL     1       5.369  25.858  18.925  0.00  0.00    +0.003 A 
ATOM     14  C   UNL     1       6.458  26.491  18.307  0.00  0.00    +0.000 A 
ENDBRANCH   5   8
BRANCH   1  19
ATOM     15  C   UNL     1      14.447  26.538  18.332  0.00  0.00    +0.175 A 
ATOM     16  C   UNL     1      14.957  25.336  17.864  0.00  0.00    +0.206 A 
ATOM     17  C   UNL     1      14.209  24.528  17.011  0.00  0.00    +0.175 A 
ATOM     18  C   UNL     1      12.919  24.897  16.652  0.00  0.00    +0.040 A 
ATOM     19  C   UNL     1      12.377  26.100  17.102  0.00  0.00    +0.009 A 
ATOM     20  C   UNL     1      13.151  26.899  17.949  0.00  0.00    +0.040 A 
BRANCH  15  22
ATOM     21  C   UNL     1      15.488  28.742  18.807  0.00  0.00    +0.253 C 
ATOM     22  O   UNL     1      15.244  27.334  19.157  0.00  0.00    -0.468 OA
ENDBRANCH  15  22
BRANCH  16  23
ATOM     23  O   UNL     1      16.203  24.917  18.217  0.00  0.00    -0.465 OA
ATOM     24  C   UNL     1      16.180  24.194  19.435  0.00  0.00    +0.253 C 
ENDBRANCH  16  23
BRANCH  17  25
ATOM     25  O   UNL     1      14.803  23.388  16.570  0.00  0.00    -0.468 OA
ATOM     26  C   UNL     1      14.417  22.940  15.263  0.00  0.00    +0.253 C 
ENDBRANCH  17  25
ENDBRANCH   1  19
TORSDOF 5
ENDMDL
MODEL 9
REMARK VINA RESULT:      -7.2      5.653      7.365
REMARK  Name = 3MTF_A3F.pdb
REMARK  5 active torsions:
REMARK  status: ('A' for Active; 'I' for Inactive)
REMARK    1  A    between atoms: _14  and  _15
REMARK    2  A    between atoms: _16  and  _19
REMARK    3  A    between atoms: _17  and  _24
REMARK    4  A    between atoms: _18  and  _25
REMARK    5  A    between atoms: _20  and  _26
REMARK                            x       y       z     vdW  Elec       q    Type
REMARK                         _______ _______ _______ _____ _____    ______ ____
ROOT
ATOM      1  C   UNL     1      11.123  26.497  16.857  0.00  0.00    +0.035 A 
ATOM      2  C   UNL     1      10.825  27.374  15.835  0.00  0.00    +0.170 A 
ATOM      3  N   UNL     1       9.550  27.654  15.528  0.00  0.00    -0.226 NA
ATOM      4  C   UNL     1       8.522  27.147  16.154  0.00  0.00    +0.100 A 
ATOM      5  C   UNL     1       8.736  26.324  17.251  0.00  0.00    +0.019 A 
ATOM      6  N   UNL     1      11.818  27.843  15.088  0.00  0.00    -0.107 NA
ATOM      7  C   UNL     1      10.048  25.964  17.570  0.00  0.00    +0.004 A 
ENDROOT
BRANCH   5   8
ATOM      8  C   UNL     1       7.630  25.753  17.911  0.00  0.00    +0.005 A 
ATOM      9  C   UNL     1       7.621  24.382  18.100  0.00  0.00    +0.042 A 
ATOM     10  C   UNL     1       6.538  23.750  18.687  0.00  0.00    +0.196 A 
ATOM     11  O   UNL     1       6.583  22.404  18.835  0.00  0.00    -0.287 OA
ATOM     12  C   UNL     1       5.412  24.465  19.078  0.00  0.00    +0.042 A 
ATOM     13  C   UNL     1       5.402  25.839  18.850  0.00  0.00    +0.003 A 
ATOM     14  C   UNL     1       6.494  26.483  18.249  0.00  0.00    +0.000 A 
ENDBRANCH   5   8
BRANCH   1  19
ATOM     15  C   UNL     1      14.427  24.737  16.903  0.00  0.00    +0.175 A 
ATOM     16  C   UNL     1      15.139  25.579  17.744  0.00  0.00    +0.206 A 
ATOM     17  C   UNL     1      14.528  26.686  18.330  0.00  0.00    +0.175 A 
ATOM     18  C   UNL     1      13.204  26.987  18.040  0.00  0.00    +0.040 A 
ATOM     19  C   UNL     1      12.459  26.160  17.201  0.00  0.00    +0.009 A 
ATOM     20  C   UNL     1      13.090  25.049  16.633  0.00  0.00    +0.040 A 
BRANCH  15  22
ATOM     21  C   UNL     1      14.882  22.297  16.984  0.00  0.00    +0.253 C 
ATOM     22  O   UNL     1      15.068  23.619  16.366  0.00  0.00    -0.468 OA
ENDBRANCH  15  22
BRANCH  16  23
ATOM     23  O   UNL     1      16.449  25.343  18.030  0.00  0.00    -0.465 OA
ATOM     24  C   UNL     1      17.302  25.927  17.062  0.00  0.00    +0.253 C 
ENDBRANCH  16  23
BRANCH  17  25
ATOM     25  O   UNL     1      15.290  27.432  19.172  0.00  0.00    -0.468 OA
ATOM     26  C   UNL     1      15.432  28.819  18.833  0.00  0.00    +0.253 C 
ENDBRANCH  17  25
ENDBRANCH   1  19
TORSDOF 5
ENDMDL
